data_image0
_chemical_formula_structural       B6OC3HOC3HOC3HOC3HOC3HOC3HOC3HOC3HOC3HOC3HOC3HOC3HB6OC3HOC3HOC3HOC3HOC3HOC3HOC3HOC3HOC3HOC3HOC3HOC3HSnCSn2CSnTe4Mg2SnCSn2CSnTe4Mg2SnCSn2CSnTe4Mg2SnCSn2CSnTe4Mg2SnCSn2CSnTe4Mg2SnCSn2CSnTe4Mg2SnCSn2CSnTe4Mg2SnCSn2CSnTe4Mg2SnCSn2CSnTe4Mg2SnCSn2CSnTe4Mg2SnCSn2CSnTe4Mg2SnCSn2CSnTe4Mg2
_chemical_formula_sum              "B12 O24 C96 H24 Sn48 Te48 Mg24"
_cell_length_a       37.5385
_cell_length_b       37.8843
_cell_length_c       8.12998
_cell_angle_alpha    107.898
_cell_angle_beta     57.1894
_cell_angle_gamma    120.119

_symmetry_space_group_name_H-M    'P1'
_space_group_IT_number       1

loop_
  _space_group_symop_operation_xyz
  'x, y, z'

loop_
  _atom_site_type_symbol
  _atom_site_label
  _atom_site_symmetry_multiplicity
  _atom_site_fract_x
  _atom_site_fract_y
  _atom_site_fract_z
  _atom_site_occupancy
  B   B1        1.0  0.84274  0.41977  0.27277  1.0000
  B   B2        1.0  0.58262  0.42162  0.23434  1.0000
  B   B3        1.0  0.58028  0.15673  0.22874  1.0000
  B   B4        1.0  0.16212  0.58033  0.24014  1.0000
  B   B5        1.0  0.42598  0.58139  0.26133  1.0000
  B   B6        1.0  0.42488  0.84414  0.25708  1.0000
  O   O1        1.0  0.82009  0.37694  0.25517  1.0000
  C   C1        1.0  0.70719  0.33263  0.24419  1.0000
  C   C2        1.0  0.78017  0.36929  0.25282  1.0000
  C   C3        1.0  0.74519  0.33253  0.24251  1.0000
  H   H1        1.0  0.74707  0.30437  0.23449  1.0000
  O   O2        1.0  0.62499  0.43975  0.24148  1.0000
  C   C4        1.0  0.66851  0.37079  0.24633  1.0000
  C   C5        1.0  0.63205  0.40743  0.24323  1.0000
  C   C6        1.0  0.66831  0.40842  0.25014  1.0000
  H   H2        1.0  0.69591  0.43762  0.25687  1.0000
  O   O3        1.0  0.56278  0.18120  0.22162  1.0000
  C   C7        1.0  0.63148  0.29446  0.23219  1.0000
  C   C8        1.0  0.59488  0.22107  0.22666  1.0000
  C   C9        1.0  0.59423  0.25687  0.22503  1.0000
  H   H3        1.0  0.56582  0.25576  0.21666  1.0000
  O   O4        1.0  0.18581  0.62318  0.24773  1.0000
  C   C10       1.0  0.29926  0.66797  0.25288  1.0000
  C   C11       1.0  0.22580  0.63097  0.24930  1.0000
  C   C12       1.0  0.26131  0.66783  0.25325  1.0000
  H   H4        1.0  0.25987  0.69572  0.25394  1.0000
  O   O5        1.0  0.38255  0.56274  0.26296  1.0000
  C   C13       1.0  0.33835  0.63058  0.25288  1.0000
  C   C14       1.0  0.37559  0.59464  0.25544  1.0000
  C   C15       1.0  0.33846  0.59325  0.25431  1.0000
  H   H5        1.0  0.30994  0.56399  0.25685  1.0000
  O   O6        1.0  0.44370  0.82042  0.26051  1.0000
  C   C16       1.0  0.37596  0.70692  0.25609  1.0000
  C   C17       1.0  0.41170  0.78027  0.25925  1.0000
  C   C18       1.0  0.41345  0.74483  0.25820  1.0000
  H   H6        1.0  0.44276  0.74633  0.26068  1.0000
  O   O7        1.0  0.38192  0.81939  0.25559  1.0000
  C   C19       1.0  0.33784  0.70658  0.25496  1.0000
  C   C20       1.0  0.37444  0.77978  0.25709  1.0000
  C   C21       1.0  0.33775  0.74396  0.25381  1.0000
  H   H7        1.0  0.31019  0.74494  0.24715  1.0000
  O   O8        1.0  0.44564  0.62404  0.25235  1.0000
  C   C22       1.0  0.37626  0.66846  0.25466  1.0000
  C   C23       1.0  0.41331  0.63170  0.25182  1.0000
  C   C24       1.0  0.41425  0.66847  0.25330  1.0000
  H   H8        1.0  0.44335  0.69662  0.25652  1.0000
  O   O9        1.0  0.18687  0.56186  0.23847  1.0000
  C   C25       1.0  0.29956  0.63032  0.25108  1.0000
  C   C26       1.0  0.22632  0.59398  0.24479  1.0000
  C   C27       1.0  0.26211  0.59281  0.24645  1.0000
  H   H9        1.0  0.26115  0.56355  0.24338  1.0000
  O   O10       1.0  0.62259  0.18092  0.23705  1.0000
  C   C28       1.0  0.66877  0.29421  0.23779  1.0000
  C   C29       1.0  0.63109  0.22087  0.23456  1.0000
  C   C30       1.0  0.66789  0.25639  0.24009  1.0000
  H   H10       1.0  0.69470  0.25495  0.25066  1.0000
  O   O11       1.0  0.56381  0.37872  0.23144  1.0000
  C   C31       1.0  0.63144  0.33316  0.23550  1.0000
  C   C32       1.0  0.59539  0.37057  0.23545  1.0000
  C   C33       1.0  0.59428  0.33354  0.23123  1.0000
  H   H11       1.0  0.56565  0.30563  0.22238  1.0000
  O   O12       1.0  0.81745  0.43841  0.28065  1.0000
  C   C34       1.0  0.70669  0.37056  0.25130  1.0000
  C   C35       1.0  0.77894  0.40644  0.26590  1.0000
  C   C36       1.0  0.74340  0.40792  0.26348  1.0000
  H   H12       1.0  0.74390  0.43731  0.27258  1.0000
  B   B7        1.0  0.83684  0.41629  0.76681  1.0000
  B   B8        1.0  0.57791  0.42169  0.73436  1.0000
  B   B9        1.0  0.57301  0.15520  0.73137  1.0000
  B   B10       1.0  0.15593  0.57594  0.73642  1.0000
  B   B11       1.0  0.42096  0.58193  0.76632  1.0000
  B   B12       1.0  0.41767  0.84259  0.75617  1.0000
  O   O13       1.0  0.81330  0.37350  0.75266  1.0000
  C   C37       1.0  0.70073  0.33058  0.74191  1.0000
  C   C38       1.0  0.77362  0.36647  0.75065  1.0000
  C   C39       1.0  0.73842  0.32994  0.74033  1.0000
  H   H13       1.0  0.74003  0.30171  0.73310  1.0000
  O   O14       1.0  0.62019  0.43937  0.74160  1.0000
  C   C40       1.0  0.66236  0.36940  0.74746  1.0000
  C   C41       1.0  0.62665  0.40677  0.74473  1.0000
  C   C42       1.0  0.66264  0.40729  0.75172  1.0000
  H   H14       1.0  0.69054  0.43630  0.75822  1.0000
  O   O15       1.0  0.55453  0.17979  0.73284  1.0000
  C   C43       1.0  0.62433  0.29301  0.73604  1.0000
  C   C44       1.0  0.58731  0.21962  0.73233  1.0000
  C   C45       1.0  0.58626  0.25555  0.73522  1.0000
  H   H15       1.0  0.55691  0.25473  0.73579  1.0000
  O   O16       1.0  0.17840  0.61890  0.74757  1.0000
  C   C46       1.0  0.29210  0.66588  0.75465  1.0000
  C   C47       1.0  0.21865  0.62767  0.75024  1.0000
  C   C48       1.0  0.25376  0.66495  0.75475  1.0000
  H   H16       1.0  0.25197  0.69266  0.75514  1.0000
  O   O17       1.0  0.37753  0.56274  0.76703  1.0000
  C   C49       1.0  0.33201  0.62930  0.75556  1.0000
  C   C50       1.0  0.36989  0.59427  0.76029  1.0000
  C   C51       1.0  0.33276  0.59228  0.75674  1.0000
  H   H17       1.0  0.30487  0.56273  0.75640  1.0000
  O   O18       1.0  0.43649  0.81890  0.75957  1.0000
  C   C52       1.0  0.36874  0.70553  0.75825  1.0000
  C   C53       1.0  0.40442  0.77881  0.75915  1.0000
  C   C54       1.0  0.40610  0.74352  0.76002  1.0000
  H   H18       1.0  0.43535  0.74531  0.76418  1.0000
  O   O19       1.0  0.37464  0.81778  0.75476  1.0000
  C   C55       1.0  0.33045  0.70482  0.75696  1.0000
  C   C56       1.0  0.36704  0.77813  0.75727  1.0000
  C   C57       1.0  0.33015  0.74217  0.75629  1.0000
  H   H19       1.0  0.30213  0.74292  0.75234  1.0000
  O   O20       1.0  0.43977  0.62461  0.75980  1.0000
  C   C58       1.0  0.36948  0.66742  0.75817  1.0000
  C   C59       1.0  0.40710  0.63161  0.75860  1.0000
  C   C60       1.0  0.40759  0.66808  0.75872  1.0000
  H   H20       1.0  0.43655  0.69637  0.76157  1.0000
  O   O21       1.0  0.18156  0.55837  0.73354  1.0000
  C   C61       1.0  0.29306  0.62852  0.75292  1.0000
  C   C62       1.0  0.22017  0.59108  0.74405  1.0000
  C   C63       1.0  0.25618  0.59063  0.74697  1.0000
  H   H21       1.0  0.25575  0.56163  0.74398  1.0000
  O   O22       1.0  0.61639  0.17919  0.72987  1.0000
  C   C64       1.0  0.66214  0.29241  0.73590  1.0000
  C   C65       1.0  0.62460  0.21914  0.73014  1.0000
  C   C66       1.0  0.66172  0.25451  0.73318  1.0000
  H   H22       1.0  0.68920  0.25288  0.73773  1.0000
  O   O23       1.0  0.55873  0.37876  0.73077  1.0000
  C   C67       1.0  0.62489  0.33194  0.73789  1.0000
  C   C68       1.0  0.58980  0.37010  0.73638  1.0000
  C   C69       1.0  0.58819  0.33284  0.73211  1.0000
  H   H23       1.0  0.55968  0.30507  0.72118  1.0000
  O   O24       1.0  0.81225  0.43550  0.77289  1.0000
  C   C70       1.0  0.70050  0.36868  0.75043  1.0000
  C   C71       1.0  0.77314  0.40384  0.76166  1.0000
  C   C72       1.0  0.73768  0.40579  0.76078  1.0000
  H   H24       1.0  0.73873  0.43535  0.76884  1.0000
  C  Sn1       1.0  0.91741  0.42614  0.32193  1.0000
  C   C73       1.0  0.88909  0.44100  0.33011  1.0000
  C  Sn2       1.0  0.90767  0.48106  0.28181  1.0000
  C  Sn3       1.0  0.95558  0.50680  0.22400  1.0000
  C   C74       1.0  0.98388  0.49194  0.21581  1.0000
  C  Sn4       1.0  0.96532  0.45188  0.26412  1.0000
  O  Te1       1.0  0.89809  0.38598  0.37085  1.0000
  O  Te2       1.0  0.87866  0.49524  0.29116  1.0000
  O  Te3       1.0  0.97489  0.54699  0.17507  1.0000
  O  Te4       1.0  0.99430  0.43770  0.25476  1.0000
  Mg  Mg1       1.0  0.92125  0.55224  0.21035  1.0000
  Mg  Mg2       1.0  0.95176  0.38070  0.33543  1.0000
  C  Sn5       1.0  0.49115  0.43936  0.28062  1.0000
  C   C75       1.0  0.50474  0.48158  0.30743  1.0000
  C  Sn6       1.0  0.54950  0.50806  0.28502  1.0000
  C  Sn7       1.0  0.58134  0.49202  0.23465  1.0000
  C   C76       1.0  0.56774  0.44983  0.20784  1.0000
  C  Sn8       1.0  0.52299  0.42332  0.23025  1.0000
  O  Te5       1.0  0.44623  0.41346  0.30376  1.0000
  O  Te6       1.0  0.56229  0.55016  0.31264  1.0000
  O  Te7       1.0  0.62628  0.51797  0.21152  1.0000
  O  Te8       1.0  0.51020  0.38125  0.20263  1.0000
  Mg  Mg3       1.0  0.62736  0.57301  0.26454  1.0000
  Mg  Mg4       1.0  0.44515  0.35837  0.25058  1.0000
  C  Sn9       1.0  0.55495  0.05620  0.30606  1.0000
  C   C77       1.0  0.51418  0.02881  0.29216  1.0000
  C  Sn10      1.0  0.49540  0.04137  0.22414  1.0000
  C  Sn11      1.0  0.51784  0.08217  0.16873  1.0000
  C   C78       1.0  0.55858  0.10955  0.18260  1.0000
  C  Sn12      1.0  0.57739  0.09700  0.25064  1.0000
  O  Te9       1.0  0.57311  0.04297  0.37445  1.0000
  O  Te10      1.0  0.45460  0.01343  0.21160  1.0000
  O  Te11      1.0  0.49964  0.09539  0.10031  1.0000
  O  Te12      1.0  0.61817  0.12492  0.26316  1.0000
  Mg  Mg5       1.0  0.44336  0.04599  0.10949  1.0000
  Mg  Mg6       1.0  0.62945  0.09239  0.36515  1.0000
  C  Sn13      1.0  0.08693  0.50471  0.21217  1.0000
  C   C79       1.0  0.11612  0.54632  0.18457  1.0000
  C  Sn14      1.0  0.09880  0.57346  0.20572  1.0000
  C  Sn15      1.0  0.05130  0.55872  0.25561  1.0000
  C   C80       1.0  0.02214  0.51714  0.28321  1.0000
  C  Sn16      1.0  0.03944  0.48997  0.26206  1.0000
  O  Te13      1.0  0.10500  0.47813  0.19029  1.0000
  O  Te14      1.0  0.12865  0.61492  0.17732  1.0000
  O  Te15      1.0  0.03324  0.58534  0.27747  1.0000
  O  Te16      1.0  0.00961  0.44853  0.29046  1.0000
  Mg  Mg7       1.0  0.08768  0.63911  0.22377  1.0000
  Mg  Mg8       1.0  0.05053  0.42432  0.24415  1.0000
  C  Sn17      1.0  0.50847  0.56556  0.30383  1.0000
  C   C81       1.0  0.49026  0.52364  0.32133  1.0000
  C  Sn18      1.0  0.45061  0.49662  0.29847  1.0000
  C  Sn19      1.0  0.42872  0.51180  0.25713  1.0000
  C   C82       1.0  0.44693  0.55369  0.23962  1.0000
  C  Sn20      1.0  0.48657  0.58074  0.26249  1.0000
  O  Te17      1.0  0.54814  0.59201  0.32725  1.0000
  O  Te18      1.0  0.43305  0.45485  0.31670  1.0000
  O  Te19      1.0  0.38902  0.48530  0.23372  1.0000
  O  Te20      1.0  0.50415  0.62249  0.24425  1.0000
  Mg  Mg9       1.0  0.37825  0.43099  0.27214  1.0000
  Mg  Mg10      1.0  0.55895  0.64636  0.28868  1.0000
  C  Sn21      1.0  0.43290  0.94599  0.31257  1.0000
  C   C83       1.0  0.47648  0.97355  0.30077  1.0000
  C  Sn22      1.0  0.50984  0.95976  0.24638  1.0000
  C  Sn23      1.0  0.49944  0.91754  0.20274  1.0000
  C   C84       1.0  0.45589  0.89000  0.21451  1.0000
  C  Sn24      1.0  0.42250  0.90376  0.26893  1.0000
  O  Te21      1.0  0.40008  0.96045  0.36724  1.0000
  O  Te22      1.0  0.55316  0.98790  0.23567  1.0000
  O  Te23      1.0  0.53231  0.90308  0.14804  1.0000
  O  Te24      1.0  0.37921  0.87565  0.27961  1.0000
  Mg  Mg11      1.0  0.58636  0.95331  0.15430  1.0000
  Mg  Mg12      1.0  0.34600  0.91021  0.36086  1.0000
  C  Sn25      1.0  0.93672  0.50322  0.79872  1.0000
  C   C85       1.0  0.96267  0.48808  0.80823  1.0000
  C  Sn26      1.0  0.95092  0.44619  0.78292  1.0000
  C  Sn27      1.0  0.91243  0.41884  0.74724  1.0000
  C   C86       1.0  0.88651  0.43398  0.73771  1.0000
  C  Sn28      1.0  0.89824  0.47587  0.76304  1.0000
  O  Te25      1.0  0.94911  0.54522  0.82445  1.0000
  O  Te26      1.0  0.97737  0.43178  0.79313  1.0000
  O  Te27      1.0  0.90006  0.37681  0.72152  1.0000
  O  Te28      1.0  0.87181  0.49028  0.75281  1.0000
  Mg  Mg13      1.0  0.94678  0.37197  0.74834  1.0000
  Mg  Mg14      1.0  0.90239  0.55008  0.79748  1.0000
  C  Sn29      1.0  0.51668  0.43056  0.65223  1.0000
  C   C87       1.0  0.55480  0.44470  0.68434  1.0000
  C  Sn30      1.0  0.56972  0.48323  0.77478  1.0000
  C  Sn31      1.0  0.54601  0.50815  0.83448  1.0000
  C   C88       1.0  0.50791  0.49401  0.80240  1.0000
  C  Sn32      1.0  0.49297  0.45548  0.71194  1.0000
  O  Te29      1.0  0.50237  0.39194  0.56158  1.0000
  O  Te30      1.0  0.60793  0.49671  0.80525  1.0000
  O  Te31      1.0  0.56036  0.54680  0.92520  1.0000
  O  Te32      1.0  0.45478  0.44200  0.68149  1.0000
  Mg  Mg15      1.0  0.61421  0.55161  0.93471  1.0000
  Mg  Mg16      1.0  0.44846  0.38710  0.55214  1.0000
  C  Sn33      1.0  0.49180  0.05131  0.68624  1.0000
  C   C89       1.0  0.50869  0.02538  0.68252  1.0000
  C  Sn34      1.0  0.54621  0.04105  0.72051  1.0000
  C  Sn35      1.0  0.56728  0.08352  0.76324  1.0000
  C   C90       1.0  0.55039  0.10942  0.76697  1.0000
  C  Sn36      1.0  0.51287  0.09377  0.72896  1.0000
  O  Te33      1.0  0.45425  0.03498  0.64783  1.0000
  O  Te34      1.0  0.56249  0.01453  0.71589  1.0000
  O  Te35      1.0  0.60486  0.09984  0.80166  1.0000
  O  Te36      1.0  0.49659  0.12027  0.73361  1.0000
  Mg  Mg17      1.0  0.61450  0.05136  0.77823  1.0000
  Mg  Mg18      1.0  0.44457  0.08347  0.67139  1.0000
  C  Sn37      1.0  0.04601  0.48989  0.80684  1.0000
  C   C91       1.0  0.01857  0.50460  0.80637  1.0000
  C  Sn38      1.0  0.03798  0.54431  0.75171  1.0000
  C  Sn39      1.0  0.08583  0.56985  0.69623  1.0000
  C   C92       1.0  0.11324  0.55514  0.69668  1.0000
  C  Sn40      1.0  0.09386  0.51543  0.75136  1.0000
  O  Te37      1.0  0.02588  0.45009  0.86200  1.0000
  O  Te38      1.0  0.00985  0.55833  0.75245  1.0000
  O  Te39      1.0  0.10595  0.60967  0.64105  1.0000
  O  Te40      1.0  0.12197  0.50140  0.75060  1.0000
  Mg  Mg19      1.0  0.05334  0.61484  0.66547  1.0000
  Mg  Mg20      1.0  0.07852  0.44490  0.83745  1.0000
  C  Sn41      1.0  0.43842  0.49479  0.74630  1.0000
  C   C93       1.0  0.48297  0.50965  0.72594  1.0000
  C  Sn42      1.0  0.50894  0.55160  0.74288  1.0000
  C  Sn43      1.0  0.48999  0.57928  0.78110  1.0000
  C   C94       1.0  0.44547  0.56442  0.80147  1.0000
  C  Sn44      1.0  0.41947  0.52247  0.78451  1.0000
  O  Te41      1.0  0.41308  0.45273  0.72880  1.0000
  O  Te42      1.0  0.55340  0.56572  0.72189  1.0000
  O  Te43      1.0  0.51537  0.62137  0.79858  1.0000
  O  Te44      1.0  0.37503  0.50835  0.80552  1.0000
  Mg  Mg21      1.0  0.57436  0.62574  0.75833  1.0000
  Mg  Mg22      1.0  0.35403  0.44834  0.76921  1.0000
  C  Sn45      1.0  0.48294  0.92253  0.81852  1.0000
  C   C95       1.0  0.44227  0.89477  0.80452  1.0000
  C  Sn46      1.0  0.42277  0.90709  0.73927  1.0000
  C  Sn47      1.0  0.44439  0.94800  0.68677  1.0000
  C   C96       1.0  0.48504  0.97573  0.70074  1.0000
  C  Sn48      1.0  0.50456  0.96344  0.76602  1.0000
  O  Te45      1.0  0.50183  0.90954  0.88411  1.0000
  O  Te46      1.0  0.38208  0.87880  0.72657  1.0000
  O  Te47      1.0  0.42546  0.96098  0.62114  1.0000
  O  Te48      1.0  0.54522  0.99170  0.77870  1.0000
  Mg  Mg23      1.0  0.36966  0.91113  0.62890  1.0000
  Mg  Mg24      1.0  0.55769  0.95941  0.87624  1.0000
