data_image0
_chemical_formula_structural       B3OC3HOC5H3OC3HOC3HOC5H3OC3HC8H3B3OC3HOC5H3OC5H3OC5H3OC5H3OC3HC10H3C2Sn2C2HTe2HMgC2Sn2C2HTe2HMgC2Sn2C2HTe2HMg
_chemical_formula_sum              "B6 O12 C78 H36 Sn6 Te6 Mg3"
_cell_length_a       22.5722
_cell_length_b       22.6258
_cell_length_c       8.03509
_cell_angle_alpha    62.3584
_cell_angle_beta     94.8504
_cell_angle_gamma    120.007

_symmetry_space_group_name_H-M    'P1'
_space_group_IT_number       1

loop_
  _space_group_symop_operation_xyz
  'x, y, z'

loop_
  _atom_site_type_symbol
  _atom_site_label
  _atom_site_symmetry_multiplicity
  _atom_site_fract_x
  _atom_site_fract_y
  _atom_site_fract_z
  _atom_site_occupancy
  B   B1        1.0  0.47609  0.95963  0.25193  1.0000
  B   B2        1.0  0.03931  0.51672  0.24112  1.0000
  B   B3        1.0  0.48495  0.52338  0.25154  1.0000
  O   O1        1.0  0.08195  0.48980  0.22647  1.0000
  C   C1        1.0  0.27074  0.60463  0.23641  1.0000
  C   C2        1.0  0.14796  0.54250  0.23440  1.0000
  C   C3        1.0  0.20889  0.54314  0.22747  1.0000
  H   H1        1.0  0.20884  0.49779  0.21305  1.0000
  O   O2        1.0  0.51425  0.59283  0.26144  1.0000
  C   C4        1.0  0.59265  0.51045  0.28256  1.0000
  C   C5        1.0  0.62614  0.47201  0.28938  1.0000
  C   C6        1.0  0.39785  0.66736  0.24846  1.0000
  C   C7        1.0  0.46007  0.60592  0.25590  1.0000
  C   C8        1.0  0.46064  0.66651  0.25816  1.0000
  H   H2        1.0  0.50823  0.71181  0.26887  1.0000
  H   H3        1.0  0.61985  0.56146  0.30287  1.0000
  H   H4        1.0  0.67885  0.49361  0.31742  1.0000
  O   O3        1.0  0.40463  0.91864  0.24888  1.0000
  C   C9        1.0  0.33271  0.73010  0.24747  1.0000
  C   C10       1.0  0.39289  0.85267  0.24754  1.0000
  C   C11       1.0  0.33178  0.79261  0.24639  1.0000
  H   H5        1.0  0.28440  0.79387  0.24561  1.0000
  O   O4        1.0  0.50826  0.92008  0.25105  1.0000
  C   C12       1.0  0.39660  0.73132  0.24783  1.0000
  C   C13       1.0  0.45546  0.85368  0.24851  1.0000
  C   C14       1.0  0.45878  0.79490  0.24741  1.0000
  H   H6        1.0  0.50833  0.79820  0.24657  1.0000
  O   O5        1.0  0.41399  0.49370  0.24097  1.0000
  C   C15       1.0  0.48901  0.41536  0.23669  1.0000
  C   C16       1.0  0.52290  0.37780  0.24005  1.0000
  C   C17       1.0  0.33594  0.60552  0.23865  1.0000
  C   C18       1.0  0.39962  0.54598  0.24382  1.0000
  C   C19       1.0  0.33787  0.54426  0.23548  1.0000
  H   H7        1.0  0.29257  0.49690  0.22472  1.0000
  H   H8        1.0  0.43541  0.39304  0.21478  1.0000
  H   H9        1.0  0.49531  0.32804  0.21525  1.0000
  O   O6        1.0  0.07812  0.58509  0.25659  1.0000
  C   C20       1.0  0.26885  0.66508  0.24648  1.0000
  C   C21       1.0  0.14574  0.60037  0.25045  1.0000
  C   C22       1.0  0.20449  0.66160  0.25539  1.0000
  H   H10       1.0  0.20061  0.70510  0.26894  1.0000
  C   C23       1.0  0.62750  0.25805  0.25867  1.0000
  C   C24       1.0  0.73806  0.36712  0.25076  1.0000
  C   C25       1.0  0.62970  0.36742  0.26033  1.0000
  C   C26       1.0  0.52335  0.48313  0.25513  1.0000
  C   C27       1.0  0.59262  0.40543  0.26530  1.0000
  C   C28       1.0  0.59364  0.29516  0.26368  1.0000
  C   C29       1.0  0.69953  0.29451  0.25614  1.0000
  C   C30       1.0  0.70215  0.40318  0.24933  1.0000
  H   H11       1.0  0.72611  0.26539  0.25881  1.0000
  H   H12       1.0  0.73092  0.46015  0.24067  1.0000
  H   H13       1.0  0.53772  0.26708  0.27177  1.0000
  B   B4        1.0  0.48333  0.96271  0.75169  1.0000
  B   B5        1.0  0.04121  0.52500  0.74198  1.0000
  B   B6        1.0  0.48115  0.52048  0.75295  1.0000
  O   O7        1.0  0.08238  0.49555  0.73384  1.0000
  C   C31       1.0  0.27183  0.60843  0.73717  1.0000
  C   C32       1.0  0.14896  0.54813  0.73828  1.0000
  C   C33       1.0  0.20896  0.54705  0.73187  1.0000
  H   H14       1.0  0.20717  0.50015  0.72127  1.0000
  O   O8        1.0  0.51142  0.58938  0.76596  1.0000
  C   C34       1.0  0.58801  0.50686  0.79112  1.0000
  C   C35       1.0  0.62260  0.46956  0.79786  1.0000
  C   C36       1.0  0.39866  0.66802  0.75211  1.0000
  C   C37       1.0  0.45836  0.60415  0.75901  1.0000
  C   C38       1.0  0.46040  0.66510  0.76340  1.0000
  H   H15       1.0  0.50833  0.70886  0.77758  1.0000
  H   H16       1.0  0.61356  0.55622  0.81795  1.0000
  H   H17       1.0  0.67423  0.48993  0.83335  1.0000
  O   O9        1.0  0.41227  0.92401  0.74257  1.0000
  C   C39       1.0  0.48815  0.08036  0.73799  1.0000
  C   C40       1.0  0.52335  0.15154  0.73683  1.0000
  C   C41       1.0  0.33629  0.73403  0.74712  1.0000
  C   C42       1.0  0.39900  0.85683  0.74553  1.0000
  C   C43       1.0  0.33730  0.79809  0.74216  1.0000
  H   H18       1.0  0.29119  0.80210  0.73530  1.0000
  H   H19       1.0  0.43397  0.05587  0.72105  1.0000
  H   H20       1.0  0.49589  0.18173  0.71686  1.0000
  O   O10       1.0  0.51389  0.92083  0.75760  1.0000
  C   C44       1.0  0.59182  0.07358  0.77681  1.0000
  C   C45       1.0  0.62662  0.14411  0.77858  1.0000
  C   C46       1.0  0.39906  0.73271  0.75226  1.0000
  C   C47       1.0  0.46033  0.85506  0.75346  1.0000
  C   C48       1.0  0.46183  0.79476  0.75558  1.0000
  H   H21       1.0  0.51038  0.79568  0.75962  1.0000
  H   H22       1.0  0.61909  0.04353  0.79240  1.0000
  H   H23       1.0  0.68029  0.16678  0.79891  1.0000
  O   O11       1.0  0.41057  0.49272  0.73932  1.0000
  C   C49       1.0  0.48739  0.41458  0.72901  1.0000
  C   C50       1.0  0.52255  0.37825  0.73195  1.0000
  C   C51       1.0  0.33622  0.60771  0.73901  1.0000
  C   C52       1.0  0.39751  0.54579  0.74322  1.0000
  C   C53       1.0  0.33669  0.54617  0.73294  1.0000
  H   H24       1.0  0.29102  0.50040  0.71813  1.0000
  H   H25       1.0  0.43472  0.39312  0.69972  1.0000
  H   H26       1.0  0.49714  0.33047  0.69953  1.0000
  O   O12       1.0  0.08153  0.59477  0.75091  1.0000
  C   C54       1.0  0.27163  0.67012  0.74507  1.0000
  C   C55       1.0  0.14858  0.60811  0.74791  1.0000
  C   C56       1.0  0.20828  0.66890  0.75144  1.0000
  H   H27       1.0  0.20584  0.71357  0.76281  1.0000
  C   C57       1.0  0.63083  0.26091  0.75896  1.0000
  C   C58       1.0  0.52163  0.03982  0.75693  1.0000
  C   C59       1.0  0.59346  0.18515  0.75890  1.0000
  C   C60       1.0  0.74004  0.37224  0.74804  1.0000
  C   C61       1.0  0.62973  0.36831  0.76197  1.0000
  C   C62       1.0  0.51956  0.48025  0.75618  1.0000
  C   C63       1.0  0.59121  0.40497  0.76607  1.0000
  C   C64       1.0  0.59492  0.29512  0.77032  1.0000
  C   C65       1.0  0.70321  0.30023  0.74993  1.0000
  C   C66       1.0  0.70239  0.40635  0.74797  1.0000
  H   H28       1.0  0.73158  0.27427  0.74242  1.0000
  H   H29       1.0  0.73001  0.46370  0.73725  1.0000
  H   H30       1.0  0.53853  0.26357  0.78924  1.0000
  C   C67       1.0  0.49953  0.12869  0.26041  1.0000
  C   C68       1.0  0.56948  0.17185  0.26889  1.0000
  C  Sn1       1.0  0.61537  0.14833  0.26130  1.0000
  C  Sn2       1.0  0.59061  0.08032  0.24487  1.0000
  C   C69       1.0  0.52054  0.03758  0.23636  1.0000
  C   C70       1.0  0.47507  0.06163  0.24413  1.0000
  H   H31       1.0  0.46435  0.14732  0.26632  1.0000
  O  Te1       1.0  0.68510  0.19211  0.27001  1.0000
  O  Te2       1.0  0.63535  0.05551  0.23692  1.0000
  H   H32       1.0  0.42092  0.02823  0.23744  1.0000
  Mg  Mg1       1.0  0.72586  0.13467  0.25395  1.0000
  C   C71       1.0  0.91020  0.39947  0.73112  1.0000
  C   C72       1.0  0.95530  0.46914  0.73458  1.0000
  C  Sn3       1.0  0.92923  0.51054  0.75414  1.0000
  C  Sn4       1.0  0.85664  0.48149  0.77057  1.0000
  C   C73       1.0  0.81195  0.41170  0.76709  1.0000
  C   C74       1.0  0.83859  0.37076  0.74739  1.0000
  H   H33       1.0  0.93081  0.36776  0.71599  1.0000
  O  Te3       1.0  0.97502  0.58007  0.75726  1.0000
  O  Te4       1.0  0.82919  0.52168  0.79034  1.0000
  H   H34       1.0  0.80366  0.31679  0.74484  1.0000
  Mg  Mg2       1.0  0.91262  0.61380  0.78688  1.0000
  C   C75       1.0  0.86941  0.37547  0.21777  1.0000
  C   C76       1.0  0.82209  0.39314  0.25172  1.0000
  C  Sn5       1.0  0.84545  0.45772  0.27781  1.0000
  C  Sn6       1.0  0.91756  0.50540  0.26963  1.0000
  C   C77       1.0  0.96449  0.48725  0.23545  1.0000
  C   C78       1.0  0.94054  0.42247  0.20960  1.0000
  H   H35       1.0  0.85089  0.32537  0.19766  1.0000
  O  Te5       1.0  0.79747  0.47453  0.31167  1.0000
  O  Te6       1.0  0.94233  0.57031  0.29513  1.0000
  H   H36       1.0  0.97719  0.40883  0.18319  1.0000
  Mg  Mg3       1.0  0.85659  0.56927  0.33749  1.0000
