data_image0
_chemical_formula_structural       C2HOC3HOC3HOC3HOC3HOC3HOC3HOC3HOC3HOC3HOC3HOC3HOC3HOC3HOC3HOC3HOC3HOC3HOC3HOC3HOC3HOC3HOC3HOC3HOCB12C3SnCSn2CSnTe4Mg2SnCSn2CSnTe4Mg2SnCSn2CSnTe4Mg2SnCSn2CSnTe4Mg2SnCSn2CSnTe4Mg2SnCSn2CSnTe4Mg2SnCSn2CSnTe4Mg2SnCSn2CSnTe4Mg2SnCSn2CSnTe4Mg2SnCSn2CSnTe4Mg2SnCSn2CSnTe4Mg2SnCSn2CSnTe4Mg2
_chemical_formula_sum              "C99 H24 O24 B12 Sn48 Te48 Mg24"
_cell_length_a       28.4777
_cell_length_b       28.3457
_cell_length_c       28.2805
_cell_angle_alpha    90.1447
_cell_angle_beta     90.1567
_cell_angle_gamma    90.1029

_symmetry_space_group_name_H-M    'P1'
_space_group_IT_number       1

loop_
  _space_group_symop_operation_xyz
  'x, y, z'

loop_
  _atom_site_type_symbol
  _atom_site_label
  _atom_site_symmetry_multiplicity
  _atom_site_fract_x
  _atom_site_fract_y
  _atom_site_fract_z
  _atom_site_occupancy
  C   C1        1.0  0.77477  0.81113  0.15148  1.0000
  C   C2        1.0  0.70702  0.84749  0.11623  1.0000
  H   H1        1.0  0.73553  0.78293  0.09058  1.0000
  O   O1        1.0  0.66950  0.85514  0.08582  1.0000
  C   C3        1.0  0.73870  0.81095  0.11658  1.0000
  C   C4        1.0  0.22387  0.18415  0.15216  1.0000
  C   C5        1.0  0.29285  0.14848  0.11925  1.0000
  H   H2        1.0  0.26144  0.20960  0.08941  1.0000
  O   O2        1.0  0.33033  0.14053  0.08928  1.0000
  C   C6        1.0  0.25964  0.18343  0.11724  1.0000
  C   C7        1.0  0.22354  0.81178  0.84880  1.0000
  C   C8        1.0  0.29025  0.84787  0.88670  1.0000
  H   H3        1.0  0.25890  0.78466  0.91227  1.0000
  O   O3        1.0  0.32644  0.85587  0.91872  1.0000
  C   C9        1.0  0.25778  0.81198  0.88554  1.0000
  C   C10       1.0  0.77553  0.18997  0.84636  1.0000
  C   C11       1.0  0.70757  0.15495  0.88229  1.0000
  H   H4        1.0  0.74032  0.21664  0.90997  1.0000
  O   O4        1.0  0.67121  0.14736  0.91388  1.0000
  C   C12       1.0  0.74076  0.19014  0.88231  1.0000
  C   C13       1.0  0.15431  0.77368  0.80920  1.0000
  C   C14       1.0  0.11910  0.70452  0.84331  1.0000
  H   H5        1.0  0.09298  0.73608  0.78032  1.0000
  O   O5        1.0  0.08834  0.66710  0.85025  1.0000
  C   C15       1.0  0.11945  0.73765  0.80792  1.0000
  C   C16       1.0  0.15354  0.22322  0.18789  1.0000
  C   C17       1.0  0.12090  0.29214  0.15110  1.0000
  H   H6        1.0  0.09372  0.26389  0.21514  1.0000
  O   O6        1.0  0.09205  0.33058  0.14324  1.0000
  C   C18       1.0  0.11996  0.26028  0.18765  1.0000
  C   C19       1.0  0.84988  0.22300  0.81274  1.0000
  C   C20       1.0  0.88817  0.28830  0.85120  1.0000
  H   H7        1.0  0.91754  0.25352  0.79140  1.0000
  O   O7        1.0  0.92130  0.32276  0.86142  1.0000
  C   C21       1.0  0.88835  0.25492  0.81589  1.0000
  C   C22       1.0  0.84392  0.77228  0.18978  1.0000
  C   C23       1.0  0.87992  0.70494  0.15308  1.0000
  H   H8        1.0  0.90616  0.73524  0.21675  1.0000
  O   O8        1.0  0.91158  0.66879  0.14490  1.0000
  C   C24       1.0  0.87919  0.73688  0.18970  1.0000
  C   C25       1.0  0.80995  0.15463  0.77313  1.0000
  C   C26       1.0  0.84178  0.12206  0.70165  1.0000
  H   H9        1.0  0.77941  0.09537  0.73331  1.0000
  O   O9        1.0  0.84764  0.09245  0.66309  1.0000
  C   C27       1.0  0.80739  0.12128  0.73560  1.0000
  C   C28       1.0  0.18687  0.15029  0.22474  1.0000
  C   C29       1.0  0.15009  0.11644  0.29304  1.0000
  H   H10       1.0  0.20962  0.08534  0.26026  1.0000
  O   O10       1.0  0.14079  0.08530  0.32940  1.0000
  C   C30       1.0  0.18494  0.11441  0.25967  1.0000
  C   C31       1.0  0.81207  0.84738  0.22331  1.0000
  C   C32       1.0  0.84713  0.88151  0.29279  1.0000
  H   H11       1.0  0.79360  0.91633  0.25353  1.0000
  O   O11       1.0  0.85723  0.91377  0.32828  1.0000
  C   C33       1.0  0.81510  0.88495  0.25658  1.0000
  C   C34       1.0  0.18885  0.84780  0.77579  1.0000
  C   C35       1.0  0.15420  0.88364  0.70703  1.0000
  H   H12       1.0  0.21235  0.91417  0.74360  1.0000
  O   O12       1.0  0.14518  0.91623  0.67161  1.0000
  C   C36       1.0  0.18788  0.88485  0.74194  1.0000
  C   C37       1.0  0.81032  0.77397  0.15209  1.0000
  C   C38       1.0  0.84709  0.70654  0.11617  1.0000
  H   H13       1.0  0.78809  0.74100  0.08523  1.0000
  O   O13       1.0  0.85721  0.67136  0.08359  1.0000
  C   C39       1.0  0.81237  0.74018  0.11485  1.0000
  C   C40       1.0  0.18786  0.22074  0.15111  1.0000
  C   C41       1.0  0.15343  0.28869  0.11423  1.0000
  H   H14       1.0  0.21176  0.25246  0.08455  1.0000
  O   O14       1.0  0.14537  0.32434  0.08173  1.0000
  C   C42       1.0  0.18697  0.25396  0.11353  1.0000
  C   C43       1.0  0.81306  0.22517  0.84695  1.0000
  C   C44       1.0  0.85106  0.29166  0.88342  1.0000
  H   H15       1.0  0.78600  0.26419  0.90816  1.0000
  O   O15       1.0  0.85945  0.32868  0.91433  1.0000
  C   C45       1.0  0.81380  0.26089  0.88227  1.0000
  C   C46       1.0  0.18785  0.77472  0.84695  1.0000
  C   C47       1.0  0.15191  0.70577  0.88029  1.0000
  H   H16       1.0  0.21013  0.74016  0.91272  1.0000
  O   O16       1.0  0.14283  0.66944  0.91156  1.0000
  C   C48       1.0  0.18602  0.73995  0.88299  1.0000
  C   C49       1.0  0.77473  0.15421  0.81062  1.0000
  C   C50       1.0  0.70745  0.11930  0.84793  1.0000
  H   H17       1.0  0.73868  0.08996  0.78621  1.0000
  O   O17       1.0  0.67115  0.08811  0.85706  1.0000
  C   C51       1.0  0.73994  0.11821  0.81211  1.0000
  C   C52       1.0  0.22346  0.14927  0.18860  1.0000
  C   C53       1.0  0.29225  0.11398  0.15459  1.0000
  H   H18       1.0  0.25958  0.08669  0.21642  1.0000
  O   O18       1.0  0.32927  0.08309  0.14754  1.0000
  C   C54       1.0  0.25862  0.11369  0.18935  1.0000
  C   C55       1.0  0.22384  0.84808  0.81374  1.0000
  C   C56       1.0  0.29040  0.88339  0.85239  1.0000
  H   H19       1.0  0.26003  0.91241  0.79017  1.0000
  O   O19       1.0  0.32660  0.91459  0.86176  1.0000
  C   C57       1.0  0.25833  0.88431  0.81605  1.0000
  C   C58       1.0  0.77671  0.84831  0.18575  1.0000
  C   C59       1.0  0.70951  0.88433  0.14923  1.0000
  H   H20       1.0  0.74344  0.91406  0.20950  1.0000
  O   O20       1.0  0.67392  0.91641  0.14041  1.0000
  C   C60       1.0  0.74325  0.88543  0.18403  1.0000
  C   C61       1.0  0.15513  0.81041  0.77296  1.0000
  C   C62       1.0  0.12146  0.84680  0.70406  1.0000
  H   H21       1.0  0.09561  0.78227  0.73198  1.0000
  O   O21       1.0  0.09073  0.85517  0.66695  1.0000
  C   C63       1.0  0.12151  0.81010  0.73570  1.0000
  C   C64       1.0  0.15269  0.18725  0.22489  1.0000
  C   C65       1.0  0.11679  0.15271  0.29351  1.0000
  H   H22       1.0  0.09050  0.21514  0.26125  1.0000
  O   O22       1.0  0.08572  0.14540  0.33050  1.0000
  C   C66       1.0  0.11727  0.18801  0.26028  1.0000
  C   C67       1.0  0.84334  0.80814  0.22703  1.0000
  C   C68       1.0  0.87602  0.84190  0.29787  1.0000
  H   H23       1.0  0.89794  0.77528  0.27104  1.0000
  O   O23       1.0  0.90480  0.84788  0.33705  1.0000
  C   C69       1.0  0.87488  0.80526  0.26599  1.0000
  C   C70       1.0  0.84745  0.18831  0.77448  1.0000
  C   C71       1.0  0.87843  0.15504  0.70293  1.0000
  H   H24       1.0  0.91083  0.21320  0.73789  1.0000
  O   O24       1.0  0.90818  0.14726  0.66507  1.0000
  C   C72       1.0  0.88198  0.18817  0.73828  1.0000
  B   B1        1.0  0.65003  0.89834  0.10066  1.0000
  B   B2        1.0  0.35209  0.09956  0.10667  1.0000
  B   B3        1.0  0.34866  0.89732  0.90276  1.0000
  B   B4        1.0  0.64895  0.10588  0.89779  1.0000
  B   B5        1.0  0.10301  0.64644  0.89301  1.0000
  B   B6        1.0  0.10727  0.34996  0.10021  1.0000
  B   B7        1.0  0.90294  0.34753  0.90033  1.0000
  B   B8        1.0  0.89727  0.64846  0.10165  1.0000
  B   B9        1.0  0.88971  0.10731  0.64185  1.0000
  B   B10       1.0  0.10074  0.10334  0.35202  1.0000
  B   B11       1.0  0.89358  0.89291  0.35475  1.0000
  B   B12       1.0  0.10527  0.89865  0.64788  1.0000
  C   C73       1.0  0.50077  0.00199  0.99956  1.0000
  C   C74       1.0  0.00336  0.49988  0.00110  1.0000
  C   C75       1.0  0.99809  0.99990  0.50047  1.0000
  C  Sn1       1.0  0.57311  0.99503  0.07018  1.0000
  C   C76       1.0  0.54937  0.98192  0.02886  1.0000
  C  Sn2       1.0  0.55243  0.93577  0.01172  1.0000
  C  Sn3       1.0  0.57977  0.90201  0.03640  1.0000
  C   C77       1.0  0.60348  0.91513  0.07769  1.0000
  C  Sn4       1.0  0.60044  0.96128  0.09486  1.0000
  O  Te1       1.0  0.56775  0.04137  0.08668  1.0000
  O  Te2       1.0  0.53112  0.92602  0.97033  1.0000
  O  Te3       1.0  0.58332  0.85566  0.01986  1.0000
  O  Te4       1.0  0.62445  0.97356  0.13622  1.0000
  Mg  Mg1       1.0  0.54684  0.85851  0.96196  1.0000
  Mg  Mg2       1.0  0.60694  0.04105  0.14464  1.0000
  C  Sn5       1.0  0.43198  0.03483  0.10304  1.0000
  C   C78       1.0  0.40716  0.07552  0.09084  1.0000
  C  Sn6       1.0  0.40879  0.09288  0.04469  1.0000
  C  Sn7       1.0  0.43577  0.06906  0.01000  1.0000
  C   C79       1.0  0.46058  0.02839  0.02221  1.0000
  C  Sn8       1.0  0.45897  0.01101  0.06836  1.0000
  O  Te5       1.0  0.42984  0.01810  0.14940  1.0000
  O  Te6       1.0  0.38368  0.13364  0.03334  1.0000
  O  Te7       1.0  0.44062  0.08835  0.96362  1.0000
  O  Te8       1.0  0.48584  0.97028  0.07971  1.0000
  Mg  Mg3       1.0  0.40035  0.14516  0.96541  1.0000
  Mg  Mg4       1.0  0.47190  0.96123  0.14762  1.0000
  C  Sn9       1.0  0.42823  0.99308  0.92955  1.0000
  C   C80       1.0  0.45320  0.98066  0.97025  1.0000
  C  Sn10      1.0  0.45044  0.93483  0.98808  1.0000
  C  Sn11      1.0  0.42217  0.90069  0.96473  1.0000
  C   C81       1.0  0.39723  0.91312  0.92405  1.0000
  C  Sn12      1.0  0.39996  0.95894  0.90620  1.0000
  O  Te9       1.0  0.42972  0.03910  0.91234  1.0000
  O  Te10      1.0  0.47299  0.92072  0.02884  1.0000
  O  Te11      1.0  0.41892  0.85464  0.98198  1.0000
  O  Te12      1.0  0.37472  0.97053  0.86546  1.0000
  Mg  Mg5       1.0  0.45720  0.85340  0.03859  1.0000
  Mg  Mg6       1.0  0.38871  0.03783  0.85567  1.0000
  C  Sn13      1.0  0.54958  0.09035  0.97744  1.0000
  C   C82       1.0  0.52840  0.04755  0.96503  1.0000
  C  Sn14      1.0  0.54919  0.01801  0.93150  1.0000
  C  Sn15      1.0  0.59205  0.03152  0.90995  1.0000
  C   C83       1.0  0.61321  0.07430  0.92236  1.0000
  C  Sn16      1.0  0.59244  0.10386  0.95588  1.0000
  O  Te13      1.0  0.52545  0.11680  0.01104  1.0000
  O  Te14      1.0  0.52914  0.97539  0.91966  1.0000
  O  Te15      1.0  0.61345  0.00250  0.87632  1.0000
  O  Te16      1.0  0.61425  0.14645  0.96773  1.0000
  Mg  Mg7       1.0  0.57197  0.94793  0.87196  1.0000
  Mg  Mg8       1.0  0.56876  0.17140  0.01544  1.0000
  C  Sn17      1.0  0.02556  0.54606  0.91162  1.0000
  C   C84       1.0  0.03677  0.52818  0.95625  1.0000
  C  Sn18      1.0  0.06784  0.55248  0.98590  1.0000
  C  Sn19      1.0  0.08810  0.59556  0.97065  1.0000
  C   C85       1.0  0.07688  0.61342  0.92606  1.0000
  C  Sn20      1.0  0.04582  0.58914  0.89637  1.0000
  O  Te17      1.0  0.99441  0.52118  0.88256  1.0000
  O  Te18      1.0  0.07580  0.53137  0.03035  1.0000
  O  Te19      1.0  0.11927  0.62043  0.99975  1.0000
  O  Te20      1.0  0.03512  0.60770  0.85195  1.0000
  Mg  Mg9       1.0  0.12013  0.57827  0.05717  1.0000
  Mg  Mg10      1.0  0.99078  0.56084  0.82512  1.0000
  C  Sn21      1.0  0.10592  0.43155  0.03719  1.0000
  C   C86       1.0  0.09222  0.40555  0.07676  1.0000
  C  Sn22      1.0  0.04576  0.40691  0.09243  1.0000
  C  Sn23      1.0  0.01230  0.43480  0.06803  1.0000
  C   C87       1.0  0.02600  0.46077  0.02848  1.0000
  C  Sn24      1.0  0.07245  0.45944  0.01279  1.0000
  O  Te21      1.0  0.15255  0.42967  0.02215  1.0000
  O  Te22      1.0  0.03290  0.38063  0.13209  1.0000
  O  Te23      1.0  0.96564  0.43666  0.08311  1.0000
  O  Te24      1.0  0.08804  0.48822  0.97315  1.0000
  Mg  Mg11      1.0  0.96518  0.39466  0.13891  1.0000
  Mg  Mg12      1.0  0.15575  0.47419  0.96628  1.0000
  C  Sn25      1.0  0.98523  0.40372  0.92011  1.0000
  C   C88       1.0  0.94132  0.38417  0.93023  1.0000
  C  Sn26      1.0  0.91016  0.40768  0.96016  1.0000
  C  Sn27      1.0  0.92315  0.45166  0.98039  1.0000
  C   C89       1.0  0.96704  0.47119  0.97026  1.0000
  C  Sn28      1.0  0.99822  0.44770  0.94033  1.0000
  O  Te25      1.0  0.01582  0.37961  0.89008  1.0000
  O  Te26      1.0  0.86646  0.38742  0.96977  1.0000
  O  Te27      1.0  0.88980  0.47324  0.01043  1.0000
  O  Te28      1.0  0.04189  0.46794  0.93072  1.0000
  Mg  Mg13      1.0  0.83421  0.43131  0.01280  1.0000
  Mg  Mg14      1.0  0.07144  0.42157  0.88768  1.0000
  C  Sn29      1.0  0.90296  0.57284  0.03152  1.0000
  C   C90       1.0  0.91316  0.59451  0.07480  1.0000
  C  Sn30      1.0  0.95736  0.58917  0.09563  1.0000
  C  Sn31      1.0  0.99209  0.56162  0.07272  1.0000
  C   C91       1.0  0.98188  0.53998  0.02947  1.0000
  C  Sn32      1.0  0.93769  0.54529  0.00862  1.0000
  O  Te29      1.0  0.85854  0.57867  0.01134  1.0000
  O  Te30      1.0  0.96674  0.61116  0.13892  1.0000
  O  Te31      1.0  0.03654  0.55581  0.09294  1.0000
  O  Te32      1.0  0.93103  0.52585  0.96535  1.0000
  Mg  Mg15      1.0  0.03248  0.59275  0.15227  1.0000
  Mg  Mg16      1.0  0.86532  0.54425  0.95196  1.0000
  C  Sn33      1.0  0.90562  0.02452  0.58424  1.0000
  C   C92       1.0  0.91791  0.06655  0.60708  1.0000
  C  Sn34      1.0  0.95456  0.09441  0.58987  1.0000
  C  Sn35      1.0  0.97942  0.07996  0.54894  1.0000
  C   C93       1.0  0.96712  0.03795  0.52612  1.0000
  C  Sn36      1.0  0.93049  0.01007  0.54332  1.0000
  O  Te33      1.0  0.87065  0.99723  0.60207  1.0000
  O  Te34      1.0  0.96621  0.13628  0.61332  1.0000
  O  Te35      1.0  0.01620  0.10729  0.53112  1.0000
  O  Te36      1.0  0.92061  0.96823  0.51988  1.0000
  Mg  Mg17      1.0  0.01893  0.16141  0.57541  1.0000
  Mg  Mg18      1.0  0.86788  0.94308  0.55774  1.0000
  C  Sn37      1.0  0.00596  0.07394  0.43168  1.0000
  C   C94       1.0  0.01817  0.03143  0.45336  1.0000
  C  Sn38      1.0  0.06339  0.01310  0.44830  1.0000
  C  Sn39      1.0  0.09711  0.03779  0.42103  1.0000
  C   C95       1.0  0.08490  0.08028  0.39937  1.0000
  C  Sn40      1.0  0.03969  0.09863  0.40440  1.0000
  O  Te37      1.0  0.96055  0.09160  0.43721  1.0000
  O  Te38      1.0  0.07655  0.97053  0.47030  1.0000
  O  Te39      1.0  0.14255  0.02009  0.41551  1.0000
  O  Te40      1.0  0.02831  0.14118  0.38243  1.0000
  Mg  Mg19      1.0  0.14299  0.96082  0.45234  1.0000
  Mg  Mg20      1.0  0.96189  0.15093  0.40038  1.0000
  C  Sn41      1.0  0.98796  0.92029  0.43638  1.0000
  C   C96       1.0  0.97921  0.96561  0.45378  1.0000
  C  Sn42      1.0  0.93612  0.98749  0.44516  1.0000
  C  Sn43      1.0  0.90105  0.96357  0.41862  1.0000
  C   C97       1.0  0.90981  0.91827  0.40125  1.0000
  C  Sn44      1.0  0.95289  0.89637  0.40985  1.0000
  O  Te41      1.0  0.03129  0.89909  0.44543  1.0000
  O  Te42      1.0  0.92640  0.03282  0.46290  1.0000
  O  Te43      1.0  0.85770  0.98481  0.40958  1.0000
  O  Te44      1.0  0.96083  0.85106  0.39213  1.0000
  Mg  Mg21      1.0  0.86177  0.04691  0.44123  1.0000
  Mg  Mg22      1.0  0.02543  0.83693  0.41380  1.0000
  C  Sn45      1.0  0.03315  0.90253  0.57555  1.0000
  C   C98       1.0  0.07677  0.91439  0.59503  1.0000
  C  Sn46      1.0  0.09561  0.95942  0.58842  1.0000
  C  Sn47      1.0  0.07031  0.99332  0.56180  1.0000
  C   C99       1.0  0.02673  0.98145  0.54234  1.0000
  C  Sn48      1.0  0.00786  0.93642  0.54893  1.0000
  O  Te45      1.0  0.01499  0.85730  0.58262  1.0000
  O  Te46      1.0  0.13928  0.97045  0.60823  1.0000
  O  Te47      1.0  0.08673  0.03857  0.55474  1.0000
  O  Te48      1.0  0.96421  0.92539  0.52915  1.0000
  Mg  Mg23      1.0  0.14751  0.03676  0.58879  1.0000
  Mg  Mg24      1.0  0.95415  0.85911  0.54858  1.0000
