data_image0
_chemical_formula_structural       ONC3H2ONC3H2ONC6H4ONC3H2ONC3H2ONC6H4ONC3H2ONC6H4ONC6H4ONC3H2ONC6H4ONC6H4SnCSn2CSnTe4Mg2SnCSn2CSnTe4Mg2SnCSn2CSnTe4Mg2
_chemical_formula_sum              "O12 N12 C60 H36 Sn12 Te12 Mg6"
_cell_length_a       22.4022
_cell_length_b       22.7172
_cell_length_c       8.03278
_cell_angle_alpha    123.044
_cell_angle_beta     85.5886
_cell_angle_gamma    120.122

_symmetry_space_group_name_H-M    'P1'
_space_group_IT_number       1

loop_
  _space_group_symop_operation_xyz
  'x, y, z'

loop_
  _atom_site_type_symbol
  _atom_site_label
  _atom_site_symmetry_multiplicity
  _atom_site_fract_x
  _atom_site_fract_y
  _atom_site_fract_z
  _atom_site_occupancy
  O   O1        1.0  0.28834  0.52382  0.22830  1.0000
  N   N1        1.0  0.41539  0.55302  0.23819  1.0000
  C   C1        1.0  0.31026  0.58827  0.23231  1.0000
  C   C2        1.0  0.38384  0.63864  0.23560  1.0000
  C   C3        1.0  0.43318  0.61924  0.24048  1.0000
  H   H1        1.0  0.48797  0.65978  0.24633  1.0000
  H   H2        1.0  0.36088  0.52084  0.23454  1.0000
  O   O2        1.0  0.47441  0.75498  0.23992  1.0000
  N   N2        1.0  0.44562  0.85046  0.22799  1.0000
  C   C4        1.0  0.40952  0.71160  0.23547  1.0000
  C   C5        1.0  0.35891  0.73321  0.23128  1.0000
  C   C6        1.0  0.37934  0.80113  0.22735  1.0000
  H   H3        1.0  0.33904  0.81432  0.22464  1.0000
  H   H4        1.0  0.47886  0.83099  0.23209  1.0000
  O   O3        1.0  0.24310  0.70919  0.24198  1.0000
  N   N3        1.0  0.14430  0.58667  0.25176  1.0000
  C   C7        1.0  0.28537  0.68646  0.23616  1.0000
  C   C8        1.0  0.26205  0.61424  0.23598  1.0000
  C   C9        1.0  0.19325  0.56872  0.24663  1.0000
  C   C10       1.0  0.07370  0.54392  0.25936  1.0000
  C   C11       1.0  0.03176  0.57590  0.27788  1.0000
  C   C12       1.0  0.04262  0.46950  0.24461  1.0000
  H   H5        1.0  0.05537  0.63335  0.28836  1.0000
  H   H6        1.0  0.17957  0.51685  0.25258  1.0000
  H   H7        1.0  0.07350  0.44301  0.22955  1.0000
  H   H8        1.0  0.16589  0.63970  0.25159  1.0000
  O   O4        1.0  0.71119  0.47072  0.27484  1.0000
  N   N4        1.0  0.58400  0.43795  0.25213  1.0000
  C   C13       1.0  0.68964  0.40613  0.27039  1.0000
  C   C14       1.0  0.61563  0.35362  0.26047  1.0000
  C   C15       1.0  0.56591  0.37218  0.25218  1.0000
  H   H9        1.0  0.51097  0.33159  0.24537  1.0000
  H   H10       1.0  0.63899  0.47050  0.25920  1.0000
  O   O5        1.0  0.52556  0.23435  0.24701  1.0000
  N   N5        1.0  0.55708  0.14243  0.26830  1.0000
  C   C16       1.0  0.59077  0.28017  0.25791  1.0000
  C   C17       1.0  0.64268  0.26037  0.26553  1.0000
  C   C18       1.0  0.62322  0.19263  0.26939  1.0000
  H   H11       1.0  0.66441  0.18093  0.27414  1.0000
  H   H12       1.0  0.52293  0.16020  0.26011  1.0000
  O   O6        1.0  0.76053  0.28912  0.26623  1.0000
  N   N6        1.0  0.85887  0.41625  0.27039  1.0000
  C   C19       1.0  0.71689  0.30967  0.26774  1.0000
  C   C20       1.0  0.73919  0.38257  0.27209  1.0000
  C   C21       1.0  0.80852  0.43161  0.27035  1.0000
  C   C22       1.0  0.92962  0.46029  0.26592  1.0000
  C   C23       1.0  0.97167  0.42857  0.24839  1.0000
  C   C24       1.0  0.96068  0.53487  0.28141  1.0000
  H   H13       1.0  0.94795  0.37117  0.23800  1.0000
  H   H14       1.0  0.82134  0.48392  0.26736  1.0000
  H   H15       1.0  0.92974  0.56137  0.29674  1.0000
  H   H16       1.0  0.83767  0.36248  0.26711  1.0000
  O   O7        1.0  0.28841  0.52971  0.72823  1.0000
  N   N7        1.0  0.41499  0.55966  0.73932  1.0000
  C   C25       1.0  0.31010  0.59409  0.73195  1.0000
  C   C26       1.0  0.38363  0.64534  0.73683  1.0000
  C   C27       1.0  0.43302  0.62578  0.74088  1.0000
  H   H17       1.0  0.48777  0.66587  0.74559  1.0000
  H   H18       1.0  0.36043  0.52791  0.73666  1.0000
  O   O8        1.0  0.47391  0.76381  0.74840  1.0000
  N   N8        1.0  0.44321  0.85738  0.73244  1.0000
  C   C28       1.0  0.40891  0.71905  0.74038  1.0000
  C   C29       1.0  0.35752  0.73998  0.73663  1.0000
  C   C30       1.0  0.37718  0.80755  0.73199  1.0000
  C   C31       1.0  0.46886  0.92872  0.73710  1.0000
  C   C32       1.0  0.54264  0.97817  0.76230  1.0000
  C   C33       1.0  0.42447  0.95356  0.72210  1.0000
  H   H19       1.0  0.57700  0.95906  0.77493  1.0000
  H   H20       1.0  0.33632  0.81969  0.72736  1.0000
  H   H21       1.0  0.36700  0.91556  0.69844  1.0000
  H   H22       1.0  0.47730  0.83938  0.73980  1.0000
  O   O9        1.0  0.24155  0.71567  0.75262  1.0000
  N   N9        1.0  0.14308  0.58968  0.75190  1.0000
  C   C34       1.0  0.28407  0.69275  0.74188  1.0000
  C   C35       1.0  0.26136  0.61945  0.73603  1.0000
  C   C36       1.0  0.19240  0.57199  0.74263  1.0000
  C   C37       1.0  0.07263  0.54644  0.76011  1.0000
  C   C38       1.0  0.03049  0.57811  0.77819  1.0000
  C   C39       1.0  0.04192  0.47244  0.74754  1.0000
  H   H23       1.0  0.05406  0.63565  0.78904  1.0000
  H   H24       1.0  0.17894  0.51863  0.74162  1.0000
  H   H25       1.0  0.07336  0.44697  0.73629  1.0000
  H   H26       1.0  0.16438  0.64399  0.75754  1.0000
  O   O10       1.0  0.71103  0.47612  0.77456  1.0000
  N   N10       1.0  0.58258  0.44239  0.74701  1.0000
  C   C40       1.0  0.68923  0.41157  0.77039  1.0000
  C   C41       1.0  0.61503  0.35950  0.76064  1.0000
  C   C42       1.0  0.56500  0.37729  0.74967  1.0000
  H   H27       1.0  0.51012  0.33634  0.74241  1.0000
  H   H28       1.0  0.63742  0.47524  0.75441  1.0000
  O   O11       1.0  0.52447  0.24194  0.75237  1.0000
  N   N11       1.0  0.55414  0.14847  0.76915  1.0000
  C   C43       1.0  0.58965  0.28656  0.76065  1.0000
  C   C44       1.0  0.64100  0.26626  0.76870  1.0000
  C   C45       1.0  0.62056  0.19799  0.77114  1.0000
  C   C46       1.0  0.52785  0.07661  0.76222  1.0000
  C   C47       1.0  0.45408  0.02721  0.73676  1.0000
  C   C48       1.0  0.57212  0.05138  0.77548  1.0000
  H   H29       1.0  0.41970  0.04645  0.72524  1.0000
  H   H30       1.0  0.66094  0.18508  0.77448  1.0000
  H   H31       1.0  0.62954  0.08908  0.79779  1.0000
  H   H32       1.0  0.52088  0.16762  0.76306  1.0000
  O   O12       1.0  0.75804  0.29291  0.76675  1.0000
  N   N12       1.0  0.85739  0.41846  0.76863  1.0000
  C   C49       1.0  0.71510  0.31437  0.76905  1.0000
  C   C50       1.0  0.73826  0.38722  0.77213  1.0000
  C   C51       1.0  0.80789  0.43521  0.77014  1.0000
  C   C52       1.0  0.92844  0.46232  0.76564  1.0000
  C   C53       1.0  0.97082  0.43122  0.75034  1.0000
  C   C54       1.0  0.95948  0.53696  0.78132  1.0000
  H   H33       1.0  0.94748  0.37416  0.74168  1.0000
  H   H34       1.0  0.82168  0.48805  0.76810  1.0000
  H   H35       1.0  0.92844  0.56324  0.79573  1.0000
  H   H36       1.0  0.83539  0.36424  0.76402  1.0000
  C  Sn1       1.0  0.44780  0.41522  0.67028  1.0000
  C   C55       1.0  0.52056  0.44801  0.68075  1.0000
  C  Sn2       1.0  0.56668  0.53029  0.74053  1.0000
  C  Sn3       1.0  0.53951  0.58089  0.79103  1.0000
  C   C56       1.0  0.46680  0.54811  0.78058  1.0000
  C  Sn4       1.0  0.42064  0.46582  0.72078  1.0000
  O  Te1       1.0  0.40267  0.33279  0.61015  1.0000
  O  Te2       1.0  0.63921  0.56167  0.74978  1.0000
  O  Te3       1.0  0.58471  0.66337  0.85119  1.0000
  O  Te4       1.0  0.34815  0.43445  0.71155  1.0000
  Mg  Mg1       1.0  0.67936  0.67774  0.84034  1.0000
  Mg  Mg2       1.0  0.30796  0.31840  0.62112  1.0000
  C  Sn5       1.0  0.56015  0.00120  0.32585  1.0000
  C   C57       1.0  0.48827  0.94411  0.29536  1.0000
  C  Sn6       1.0  0.43413  0.94637  0.22887  1.0000
  C  Sn7       1.0  0.45220  0.00692  0.19195  1.0000
  C   C58       1.0  0.01513  0.06395  0.22240  1.0000
  C  Sn8       1.0  0.57822  0.06175  0.28893  1.0000
  O  Te5       1.0  0.61340  0.99778  0.39237  1.0000
  O  Te6       1.0  0.36266  0.88866  0.19954  1.0000
  O  Te7       1.0  0.39887  0.01029  0.12539  1.0000
  O  Te8       1.0  0.14075  0.11940  0.31823  1.0000
  Mg  Mg3       1.0  0.30932  0.91837  0.10746  1.0000
  Mg  Mg4       1.0  0.70302  0.08972  0.41020  1.0000
  C  Sn9       1.0  0.44932  0.40988  0.17080  1.0000
  C   C59       1.0  0.52225  0.44333  0.18326  1.0000
  C  Sn10      1.0  0.56808  0.52576  0.24378  1.0000
  C  Sn11      1.0  0.54045  0.57582  0.29301  1.0000
  C   C60       1.0  0.46757  0.54238  0.28058  1.0000
  C  Sn12      1.0  0.42169  0.45995  0.22004  1.0000
  O  Te9       1.0  0.40449  0.32732  0.10996  1.0000
  O  Te10      1.0  0.64080  0.55780  0.25502  1.0000
  O  Te11      1.0  0.58536  0.65844  0.35389  1.0000
  O  Te12      1.0  0.34902  0.42791  0.20882  1.0000
  Mg  Mg5       1.0  0.68041  0.67380  0.34585  1.0000
  Mg  Mg6       1.0  0.30937  0.31194  0.11811  1.0000
