data_image0
_chemical_formula_structural       B6C2HOC2HOC2HOC2HOC2HOC2HOC2HOC2HOC2HOC2HOC2HOC2HOCHCHCHCHC12B6C2HOC2HOC2HOC2HOC2HOC2HOC2HOC2HOC2HOC2HOC2HOC2HOCHCHCHCHC12SnCSn2CSnTe4Mg2SnCSn2CSnTe4Mg2SnCSn2CSnTe4Mg2SnCSn2CSnTe4Mg2SnCSn2CSnTe4Mg2SnCSn2CSnTe4Mg2
_chemical_formula_sum              "B12 C92 H32 O24 Sn24 Te24 Mg12"
_cell_length_a       30.7568
_cell_length_b       30.592
_cell_length_c       14.6906
_cell_angle_alpha    89.7626
_cell_angle_beta     89.9051
_cell_angle_gamma    120.587

_symmetry_space_group_name_H-M    'P1'
_space_group_IT_number       1

loop_
  _space_group_symop_operation_xyz
  'x, y, z'

loop_
  _atom_site_type_symbol
  _atom_site_label
  _atom_site_symmetry_multiplicity
  _atom_site_fract_x
  _atom_site_fract_y
  _atom_site_fract_z
  _atom_site_occupancy
  B   B1        1.0  0.56138  0.45167  0.99058  1.0000
  B   B2        1.0  0.55462  0.11138  0.00072  1.0000
  B   B3        1.0  0.88692  0.44424  0.00107  1.0000
  B   B4        1.0  0.45135  0.56310  0.99449  1.0000
  B   B5        1.0  0.44656  0.88698  0.00803  1.0000
  B   B6        1.0  0.10974  0.55289  0.00464  1.0000
  C   C1        1.0  0.27857  0.63587  0.05092  1.0000
  C   C2        1.0  0.18918  0.59224  0.95626  1.0000
  H   H1        1.0  0.23304  0.61534  0.83140  1.0000
  O   O1        1.0  0.13982  0.56802  0.92563  1.0000
  C   C3        1.0  0.35941  0.63789  0.04881  1.0000
  C   C4        1.0  0.40894  0.60007  0.95005  1.0000
  H   H2        1.0  0.38546  0.62179  0.82722  1.0000
  O   O2        1.0  0.43563  0.57826  0.91705  1.0000
  C   C5        1.0  0.35849  0.71683  0.05214  1.0000
  C   C6        1.0  0.40576  0.80759  0.95900  1.0000
  H   H3        1.0  0.38416  0.76495  0.83337  1.0000
  O   O3        1.0  0.43149  0.85741  0.92857  1.0000
  C   C7        1.0  0.71782  0.36166  0.04558  1.0000
  C   C8        1.0  0.80791  0.40554  0.95193  1.0000
  H   H4        1.0  0.76505  0.38343  0.82647  1.0000
  O   O4        1.0  0.85746  0.42910  0.92184  1.0000
  C   C9        1.0  0.63890  0.36207  0.04276  1.0000
  C   C10       1.0  0.59860  0.40965  0.94491  1.0000
  H   H5        1.0  0.61993  0.38639  0.82166  1.0000
  O   O5        1.0  0.57607  0.43594  0.91261  1.0000
  C   C11       1.0  0.63739  0.28131  0.04532  1.0000
  C   C12       1.0  0.59461  0.19124  0.95153  1.0000
  H   H6        1.0  0.61838  0.23521  0.82626  1.0000
  O   O6        1.0  0.57109  0.14151  0.92153  1.0000
  C   C13       1.0  0.63855  0.28111  0.94936  1.0000
  C   C14       1.0  0.59279  0.19146  0.04651  1.0000
  H   H7        1.0  0.61252  0.23596  0.17010  1.0000
  O   O7        1.0  0.56777  0.14194  0.07861  1.0000
  C   C15       1.0  0.63963  0.36190  0.94680  1.0000
  C   C16       1.0  0.59785  0.40961  0.03992  1.0000
  H   H8        1.0  0.61763  0.38671  0.16552  1.0000
  O   O8        1.0  0.57472  0.43561  0.06999  1.0000
  C   C17       1.0  0.71865  0.36140  0.94959  1.0000
  C   C18       1.0  0.80713  0.40620  0.04695  1.0000
  H   H9        1.0  0.76206  0.38528  0.17047  1.0000
  O   O9        1.0  0.85619  0.43046  0.07913  1.0000
  C   C19       1.0  0.35874  0.71788  0.95617  1.0000
  C   C20       1.0  0.40526  0.80666  0.05405  1.0000
  H   H10       1.0  0.38192  0.76082  0.17736  1.0000
  O   O10       1.0  0.43071  0.85601  0.08631  1.0000
  C   C21       1.0  0.35953  0.63911  0.95287  1.0000
  C   C22       1.0  0.40860  0.59856  0.04505  1.0000
  H   H11       1.0  0.38471  0.61675  0.17114  1.0000
  O   O11       1.0  0.43516  0.57578  0.07432  1.0000
  C   C23       1.0  0.27862  0.63690  0.95498  1.0000
  C   C24       1.0  0.18919  0.59162  0.05128  1.0000
  H   H12       1.0  0.23294  0.61231  0.17525  1.0000
  O   O12       1.0  0.13988  0.56734  0.08299  1.0000
  C   C25       1.0  0.33178  0.66274  0.09061  1.0000
  H   H13       1.0  0.33191  0.66569  0.84016  1.0000
  C   C26       1.0  0.66418  0.33491  0.08456  1.0000
  H   H14       1.0  0.66646  0.33457  0.83397  1.0000
  C   C27       1.0  0.66571  0.33463  0.90855  1.0000
  H   H15       1.0  0.66342  0.33484  0.15916  1.0000
  C   C28       1.0  0.33191  0.66478  0.91470  1.0000
  H   H16       1.0  0.33170  0.66171  0.16515  1.0000
  C   C29       1.0  0.38413  0.61753  0.09724  1.0000
  C   C30       1.0  0.38182  0.76135  0.10341  1.0000
  C   C31       1.0  0.23365  0.61308  0.10132  1.0000
  C   C32       1.0  0.61803  0.38609  0.09160  1.0000
  C   C33       1.0  0.61409  0.23628  0.09618  1.0000
  C   C34       1.0  0.76225  0.38443  0.09655  1.0000
  C   C35       1.0  0.61940  0.38591  0.89557  1.0000
  C   C36       1.0  0.76392  0.38349  0.90042  1.0000
  C   C37       1.0  0.61732  0.23584  0.90018  1.0000
  C   C38       1.0  0.38462  0.62042  0.90113  1.0000
  C   C39       1.0  0.23365  0.61490  0.90533  1.0000
  C   C40       1.0  0.38279  0.76351  0.90729  1.0000
  B   B7        1.0  0.55180  0.44197  0.50021  1.0000
  B   B8        1.0  0.56621  0.11254  0.50140  1.0000
  B   B9        1.0  0.88755  0.44643  0.50117  1.0000
  B   B10       1.0  0.44314  0.55550  0.50709  1.0000
  B   B11       1.0  0.44642  0.88873  0.49690  1.0000
  B   B12       1.0  0.11047  0.55304  0.49702  1.0000
  C   C41       1.0  0.27902  0.63853  0.54591  1.0000
  C   C42       1.0  0.19012  0.59226  0.44962  1.0000
  H   H17       1.0  0.23483  0.61352  0.32556  1.0000
  O   O13       1.0  0.14081  0.56711  0.41829  1.0000
  C   C43       1.0  0.35891  0.63956  0.54825  1.0000
  C   C44       1.0  0.40442  0.59532  0.45666  1.0000
  H   H18       1.0  0.38376  0.61667  0.33036  1.0000
  O   O14       1.0  0.42906  0.57064  0.42725  1.0000
  C   C45       1.0  0.35888  0.71923  0.54559  1.0000
  C   C46       1.0  0.40421  0.80905  0.44948  1.0000
  H   H19       1.0  0.38114  0.76500  0.32534  1.0000
  O   O15       1.0  0.42982  0.85876  0.41813  1.0000
  C   C47       1.0  0.71889  0.36384  0.55023  1.0000
  C   C48       1.0  0.80824  0.40783  0.45411  1.0000
  H   H20       1.0  0.76415  0.38540  0.32995  1.0000
  O   O16       1.0  0.85749  0.43105  0.42262  1.0000
  C   C49       1.0  0.63737  0.35971  0.54992  1.0000
  C   C50       1.0  0.59200  0.40303  0.45334  1.0000
  H   H21       1.0  0.61589  0.38268  0.32941  1.0000
  O   O17       1.0  0.56719  0.42723  0.42179  1.0000
  C   C51       1.0  0.64140  0.28155  0.55030  1.0000
  C   C52       1.0  0.60193  0.19235  0.45433  1.0000
  H   H22       1.0  0.62136  0.23692  0.33005  1.0000
  O   O18       1.0  0.57925  0.14304  0.42278  1.0000
  C   C53       1.0  0.64119  0.28183  0.45430  1.0000
  C   C54       1.0  0.60305  0.19205  0.54936  1.0000
  H   H23       1.0  0.62361  0.23559  0.67397  1.0000
  O   O19       1.0  0.58151  0.14243  0.58045  1.0000
  C   C55       1.0  0.63781  0.36008  0.45396  1.0000
  C   C56       1.0  0.59162  0.40277  0.54840  1.0000
  H   H24       1.0  0.61376  0.38152  0.67334  1.0000
  O   O20       1.0  0.56663  0.42686  0.57908  1.0000
  C   C57       1.0  0.71900  0.36365  0.45425  1.0000
  C   C58       1.0  0.80820  0.40881  0.54914  1.0000
  H   H25       1.0  0.76445  0.38746  0.67394  1.0000
  O   O21       1.0  0.85751  0.43320  0.58024  1.0000
  C   C59       1.0  0.35912  0.71915  0.44965  1.0000
  C   C60       1.0  0.40476  0.80893  0.54452  1.0000
  H   H26       1.0  0.38187  0.76471  0.66921  1.0000
  O   O22       1.0  0.43090  0.85835  0.57591  1.0000
  C   C61       1.0  0.35974  0.63945  0.45231  1.0000
  C   C62       1.0  0.40357  0.59542  0.55171  1.0000
  H   H27       1.0  0.37995  0.61733  0.67419  1.0000
  O   O23       1.0  0.42783  0.57092  0.58490  1.0000
  C   C63       1.0  0.27952  0.63787  0.44998  1.0000
  C   C64       1.0  0.18976  0.59327  0.54466  1.0000
  H   H28       1.0  0.23304  0.61666  0.66954  1.0000
  O   O24       1.0  0.14038  0.56893  0.57593  1.0000
  C   C65       1.0  0.33199  0.66587  0.58646  1.0000
  H   H29       1.0  0.33344  0.66522  0.33595  1.0000
  C   C66       1.0  0.66550  0.33498  0.59021  1.0000
  H   H30       1.0  0.66617  0.33565  0.33963  1.0000
  C   C67       1.0  0.66589  0.33538  0.41421  1.0000
  H   H31       1.0  0.66537  0.33479  0.66480  1.0000
  C   C68       1.0  0.33306  0.66542  0.41053  1.0000
  H   H32       1.0  0.33154  0.66608  0.66095  1.0000
  C   C69       1.0  0.38079  0.61748  0.60025  1.0000
  C   C70       1.0  0.38175  0.76425  0.59532  1.0000
  C   C71       1.0  0.23393  0.61621  0.59561  1.0000
  C   C72       1.0  0.61415  0.38124  0.59939  1.0000
  C   C73       1.0  0.62281  0.23643  0.60006  1.0000
  C   C74       1.0  0.76373  0.38691  0.59998  1.0000
  C   C75       1.0  0.61511  0.38183  0.40335  1.0000
  C   C76       1.0  0.76383  0.38575  0.40387  1.0000
  C   C77       1.0  0.62146  0.23710  0.40400  1.0000
  C   C78       1.0  0.38273  0.61721  0.40425  1.0000
  C   C79       1.0  0.23488  0.61447  0.39950  1.0000
  C   C80       1.0  0.38144  0.76435  0.39928  1.0000
  C  Sn1       1.0  0.52981  0.51635  0.90299  1.0000
  C   C81       1.0  0.54343  0.49709  0.97702  1.0000
  C  Sn2       1.0  0.52413  0.49606  0.06260  1.0000
  C  Sn3       1.0  0.48801  0.51136  0.07442  1.0000
  C   C82       1.0  0.47441  0.53060  0.00041  1.0000
  C  Sn4       1.0  0.49370  0.53164  0.91481  1.0000
  O  Te1       1.0  0.55201  0.52027  0.81805  1.0000
  O  Te2       1.0  0.53835  0.47671  0.13560  1.0000
  O  Te3       1.0  0.46581  0.50743  0.15945  1.0000
  O  Te4       1.0  0.47948  0.55098  0.84184  1.0000
  Mg  Mg1       1.0  0.49749  0.47872  0.23799  1.0000
  Mg  Mg2       1.0  0.52030  0.54896  0.73941  1.0000
  C  Sn5       1.0  0.47390  0.98387  0.08920  1.0000
  C   C83       1.0  0.46523  0.95058  0.01743  1.0000
  C  Sn6       1.0  0.48933  0.96543  0.93553  1.0000
  C  Sn7       1.0  0.01918  0.01786  0.92515  1.0000
  C   C84       1.0  0.02784  0.05111  0.99689  1.0000
  C  Sn8       1.0  0.00375  0.03630  0.07882  1.0000
  O  Te5       1.0  0.44696  0.96496  0.17048  1.0000
  O  Te6       1.0  0.47999  0.93142  0.86473  1.0000
  O  Te7       1.0  0.04613  0.03675  0.84378  1.0000
  O  Te8       1.0  0.01308  0.07027  0.14959  1.0000
  Mg  Mg3       1.0  0.52624  0.97545  0.76715  1.0000
  Mg  Mg4       1.0  0.96688  0.02629  0.24721  1.0000
  C  Sn9       1.0  0.98286  0.50787  0.08879  1.0000
  C   C85       1.0  0.95079  0.48721  0.01403  1.0000
  C  Sn10      1.0  0.96681  0.47746  0.93137  1.0000
  C  Sn11      1.0  0.01837  0.49184  0.92326  1.0000
  C   C86       1.0  0.05040  0.51247  0.99798  1.0000
  C  Sn12      1.0  0.03442  0.52225  0.08068  1.0000
  O  Te9       1.0  0.96361  0.51404  0.17077  1.0000
  O  Te10      1.0  0.93403  0.45674  0.85758  1.0000
  O  Te11      1.0  0.03761  0.48564  0.84119  1.0000
  O  Te12      1.0  0.06717  0.54294  0.15444  1.0000
  Mg  Mg5       1.0  0.97808  0.45577  0.76016  1.0000
  Mg  Mg6       1.0  0.02316  0.54390  0.25190  1.0000
  C  Sn13      1.0  0.47790  0.49571  0.41474  1.0000
  C   C87       1.0  0.46208  0.51106  0.49115  1.0000
  C  Sn14      1.0  0.48102  0.51052  0.57724  1.0000
  C  Sn15      1.0  0.51655  0.49433  0.58716  1.0000
  C   C88       1.0  0.53236  0.47899  0.51077  1.0000
  C  Sn16      1.0  0.51343  0.47951  0.42465  1.0000
  O  Te13      1.0  0.45847  0.49656  0.32933  1.0000
  O  Te14      1.0  0.46462  0.52603  0.65264  1.0000
  O  Te15      1.0  0.53598  0.49348  0.67266  1.0000
  O  Te16      1.0  0.52982  0.46403  0.34929  1.0000
  Mg  Mg7       1.0  0.50207  0.51817  0.75476  1.0000
  Mg  Mg8       1.0  0.49242  0.47190  0.24713  1.0000
  C  Sn17      1.0  0.50256  0.98611  0.40479  1.0000
  C   C89       1.0  0.49123  0.95219  0.47726  1.0000
  C  Sn18      1.0  0.49947  0.96955  0.56692  1.0000
  C  Sn19      1.0  0.01330  0.02189  0.58454  1.0000
  C   C90       1.0  0.02460  0.05577  0.51210  1.0000
  C  Sn20      1.0  0.01639  0.03845  0.42240  1.0000
  O  Te17      1.0  0.49402  0.96791  0.31569  1.0000
  O  Te18      1.0  0.48787  0.93492  0.63825  1.0000
  O  Te19      1.0  0.02184  0.04007  0.67372  1.0000
  O  Te20      1.0  0.02797  0.07304  0.35110  1.0000
  Mg  Mg9       1.0  0.50615  0.97809  0.74789  1.0000
  Mg  Mg10      1.0  0.00968  0.02991  0.24144  1.0000
  C  Sn21      1.0  0.01399  0.51216  0.40553  1.0000
  C   C91       1.0  0.04718  0.53305  0.47874  1.0000
  C  Sn22      1.0  0.02935  0.52046  0.56811  1.0000
  C  Sn23      1.0  0.97726  0.48624  0.58465  1.0000
  C   C92       1.0  0.94410  0.46536  0.51147  1.0000
  C  Sn24      1.0  0.96190  0.47794  0.42207  1.0000
  O  Te21      1.0  0.03265  0.52528  0.31674  1.0000
  O  Te22      1.0  0.06326  0.54185  0.64020  1.0000
  O  Te23      1.0  0.95862  0.47313  0.67353  1.0000
  O  Te24      1.0  0.92802  0.45656  0.35001  1.0000
  Mg  Mg11      1.0  0.01966  0.51219  0.74902  1.0000
  Mg  Mg12      1.0  0.97158  0.48617  0.24116  1.0000
