data_image0
_chemical_formula_structural       C4H4C4H4C2H2C2H2C2H2C2H2C2H2C4H4C2H2C2H2C2H2C2H2C2H2C2H2C2H2C2H2C4H4C2H2C2H2C2H2C2H2C2H2C4H4C4H4C2H2C2H2C6NC3HC2NCHNCHC2NCHNC3HC2NCHNCHNCHC2NC3HNCHC2NC3HNC3HNC3HNC3HC2NC3HNC3HSnCSn2CSnTe4Mg2SnCSn2CSnTe4Mg2SnCSn2CSnTe4Mg2SnCSn2CSnTe4Mg2SnCSn2CSnTe4Mg2SnCSn2CSnTe4Mg2SnCSn2CSnTe4Mg2SnCSn2CSnTe4Mg2SnCSn2CSnTe4Mg2SnCSn2CSnTe4Mg2SnCSn2CSnTe4Mg2SnCSn2CSnTe4Mg2SnCSn2CSnTe4Mg2SnCSn2CSnTe4Mg2SnCSn2CSnTe4Mg2SnCSn2CSnTe4Mg2
_chemical_formula_sum              "C148 H80 N16 Sn64 Te64 Mg32"
_cell_length_a       23.449
_cell_length_b       23.5026
_cell_length_c       8.68327
_cell_angle_alpha    89.437
_cell_angle_beta     89.895
_cell_angle_gamma    87.642

_symmetry_space_group_name_H-M    'P1'
_space_group_IT_number       1

loop_
  _space_group_symop_operation_xyz
  'x, y, z'

loop_
  _atom_site_type_symbol
  _atom_site_label
  _atom_site_symmetry_multiplicity
  _atom_site_fract_x
  _atom_site_fract_y
  _atom_site_fract_z
  _atom_site_occupancy
  C   C1        1.0  0.05337  0.32028  0.95416  1.0000
  C   C2        1.0  0.05744  0.35700  0.82858  1.0000
  C   C3        1.0  0.92403  0.20754  0.29795  1.0000
  C   C4        1.0  0.88571  0.21044  0.41987  1.0000
  H   H1        1.0  0.09212  0.30381  0.01003  1.0000
  H   H2        1.0  0.09886  0.36856  0.78461  1.0000
  H   H3        1.0  0.94094  0.16615  0.26087  1.0000
  H   H4        1.0  0.87253  0.17093  0.47251  1.0000
  C   C5        1.0  0.03492  0.46267  0.30624  1.0000
  C   C6        1.0  0.03722  0.48462  0.15722  1.0000
  C   C7        1.0  0.79224  0.18138  0.94013  1.0000
  C   C8        1.0  0.77090  0.18180  0.08885  1.0000
  H   H5        1.0  0.07358  0.45589  0.37421  1.0000
  H   H6        1.0  0.07822  0.49619  0.11022  1.0000
  H   H7        1.0  0.79994  0.14105  0.88131  1.0000
  H   H8        1.0  0.76189  0.14130  0.14295  1.0000
  C   C9        1.0  0.54929  0.82761  0.45325  1.0000
  C   C10       1.0  0.54546  0.86578  0.32952  1.0000
  H   H9        1.0  0.59093  0.81680  0.50272  1.0000
  H   H10       1.0  0.58383  0.88578  0.28904  1.0000
  C   C11       1.0  0.06273  0.30705  0.30275  1.0000
  C   C12       1.0  0.09928  0.30888  0.42823  1.0000
  H   H11       1.0  0.04651  0.34675  0.25099  1.0000
  H   H12       1.0  0.11087  0.34937  0.47619  1.0000
  C   C13       1.0  0.20212  0.28030  0.94093  1.0000
  C   C14       1.0  0.22302  0.28193  0.08996  1.0000
  H   H13       1.0  0.18886  0.31923  0.87969  1.0000
  H   H14       1.0  0.22552  0.32297  0.14569  1.0000
  C   C15       1.0  0.45655  0.67555  0.45857  1.0000
  C   C16       1.0  0.45935  0.63802  0.33552  1.0000
  H   H15       1.0  0.41530  0.68629  0.51009  1.0000
  H   H16       1.0  0.42060  0.61854  0.29758  1.0000
  C   C17       1.0  0.70919  0.81641  0.44773  1.0000
  C   C18       1.0  0.73093  0.81251  0.59614  1.0000
  H   H17       1.0  0.70134  0.85807  0.39400  1.0000
  H   H18       1.0  0.73973  0.85162  0.65567  1.0000
  C   C19       1.0  0.92704  0.96681  0.70624  1.0000
  C   C20       1.0  0.92882  0.98574  0.85660  1.0000
  C   C21       1.0  0.22248  0.67597  0.06788  1.0000
  C   C22       1.0  0.24324  0.67646  0.91839  1.0000
  H   H19       1.0  0.88597  0.96236  0.64993  1.0000
  H   H20       1.0  0.88864  0.99538  0.91502  1.0000
  H   H21       1.0  0.22126  0.63606  0.13245  1.0000
  H   H22       1.0  0.25927  0.63658  0.86931  1.0000
  C   C23       1.0  0.44358  0.33130  0.53544  1.0000
  C   C24       1.0  0.43937  0.36757  0.66079  1.0000
  H   H23       1.0  0.40517  0.32036  0.47466  1.0000
  H   H24       1.0  0.39811  0.38510  0.69850  1.0000
  C   C25       1.0  0.70813  0.18015  0.55615  1.0000
  C   C26       1.0  0.72911  0.18119  0.40701  1.0000
  H   H25       1.0  0.70214  0.13943  0.61385  1.0000
  H   H26       1.0  0.73946  0.14087  0.35152  1.0000
  C   C27       1.0  0.92408  0.81670  0.72392  1.0000
  C   C28       1.0  0.88722  0.82086  0.59854  1.0000
  H   H27       1.0  0.93655  0.85514  0.78119  1.0000
  H   H28       1.0  0.87025  0.86207  0.55799  1.0000
  C   C29       1.0  0.79941  0.80029  0.06167  1.0000
  C   C30       1.0  0.77925  0.80406  0.91177  1.0000
  H   H29       1.0  0.81078  0.83815  0.12393  1.0000
  H   H30       1.0  0.77568  0.84580  0.85700  1.0000
  C   C31       1.0  0.29638  0.28391  0.55181  1.0000
  C   C32       1.0  0.27557  0.28355  0.40256  1.0000
  H   H31       1.0  0.30932  0.32310  0.60468  1.0000
  H   H32       1.0  0.27248  0.32332  0.33763  1.0000
  C   C33       1.0  0.20357  0.77761  0.05339  1.0000
  C   C34       1.0  0.22426  0.77794  0.90385  1.0000
  H   H33       1.0  0.18790  0.81674  0.10772  1.0000
  H   H34       1.0  0.22409  0.81818  0.84111  1.0000
  C   C35       1.0  0.70108  0.28276  0.55692  1.0000
  C   C36       1.0  0.72208  0.28361  0.40725  1.0000
  H   H35       1.0  0.68978  0.32221  0.61629  1.0000
  H   H36       1.0  0.72653  0.32462  0.35062  1.0000
  C   C37       1.0  0.93009  0.71490  0.69628  1.0000
  C   C38       1.0  0.89332  0.71897  0.57125  1.0000
  H   H37       1.0  0.94751  0.67325  0.73194  1.0000
  H   H38       1.0  0.88239  0.68015  0.51303  1.0000
  C   C39       1.0  0.02971  0.95647  0.70228  1.0000
  C   C40       1.0  0.03142  0.97646  0.85204  1.0000
  C   C41       1.0  0.79269  0.69831  0.05474  1.0000
  C   C42       1.0  0.77169  0.70233  0.90555  1.0000
  H   H39       1.0  0.06895  0.94498  0.64101  1.0000
  H   H40       1.0  0.07278  0.98062  0.90608  1.0000
  H   H41       1.0  0.79783  0.65674  0.11071  1.0000
  H   H42       1.0  0.76042  0.66347  0.84844  1.0000
  C   C43       1.0  0.54483  0.31948  0.57711  1.0000
  C   C44       1.0  0.54084  0.35504  0.70399  1.0000
  H   H43       1.0  0.58600  0.29939  0.54771  1.0000
  H   H44       1.0  0.57892  0.36019  0.77310  1.0000
  C   C45       1.0  0.28498  0.18236  0.57053  1.0000
  C   C46       1.0  0.26438  0.18210  0.42120  1.0000
  H   H45       1.0  0.28849  0.14289  0.63737  1.0000
  H   H46       1.0  0.25085  0.14223  0.37389  1.0000
  C   C47       1.0  0.91997  0.30965  0.27589  1.0000
  C   C48       1.0  0.88235  0.31266  0.40002  1.0000
  H   H47       1.0  0.93328  0.34873  0.22116  1.0000
  H   H48       1.0  0.86622  0.35356  0.44288  1.0000
  C   C49       1.0  0.79384  0.28385  0.93984  1.0000
  C   C50       1.0  0.77289  0.28409  0.08955  1.0000
  H   H49       1.0  0.80274  0.32350  0.88051  1.0000
  H   H50       1.0  0.76619  0.32476  0.14655  1.0000
  C   C51       1.0  0.55807  0.68595  0.44193  1.0000
  C   C52       1.0  0.56085  0.64990  0.31637  1.0000
  H   H51       1.0  0.59681  0.70475  0.48256  1.0000
  H   H52       1.0  0.60102  0.64168  0.25611  1.0000
  C   C53       1.0  0.95116  0.32338  0.92838  1.0000
  C   C54       1.0  0.95491  0.36030  0.80289  1.0000
  C   C55       1.0  0.06540  0.20463  0.31982  1.0000
  C   C56       1.0  0.10180  0.20613  0.44580  1.0000
  H   H53       1.0  0.90951  0.30937  0.96445  1.0000
  H   H54       1.0  0.91567  0.37413  0.74465  1.0000
  H   H55       1.0  0.05131  0.16367  0.28078  1.0000
  H   H56       1.0  0.11439  0.16616  0.50286  1.0000
  C   C57       1.0  0.93260  0.45834  0.28391  1.0000
  C   C58       1.0  0.93503  0.47925  0.13479  1.0000
  C   C59       1.0  0.21370  0.17771  0.94604  1.0000
  C   C60       1.0  0.23488  0.17947  0.09453  1.0000
  H   H57       1.0  0.89183  0.44685  0.33300  1.0000
  H   H58       1.0  0.89596  0.48319  0.06785  1.0000
  H   H59       1.0  0.20986  0.13695  0.88907  1.0000
  H   H60       1.0  0.24855  0.13972  0.15061  1.0000
  C   C61       1.0  0.44769  0.81705  0.44347  1.0000
  C   C62       1.0  0.44377  0.85404  0.31800  1.0000
  H   H61       1.0  0.40937  0.79773  0.48641  1.0000
  H   H62       1.0  0.40301  0.86280  0.26123  1.0000
  C   C63       1.0  0.70802  0.71405  0.43609  1.0000
  C   C64       1.0  0.72880  0.71039  0.58531  1.0000
  H   H63       1.0  0.69834  0.67595  0.37255  1.0000
  H   H64       1.0  0.73505  0.66841  0.63749  1.0000
  C   C65       1.0  0.99724  0.25368  0.12503  1.0000
  C   C66       1.0  0.50358  0.75124  0.62476  1.0000
  C   C67       1.0  0.00127  0.75992  0.87439  1.0000
  C   C68       1.0  0.50026  0.25755  0.37500  1.0000
  C   C69       1.0  0.00031  0.30230  0.00566  1.0000
  C   C70       1.0  0.00855  0.37678  0.74794  1.0000
  N   N1        1.0  0.01829  0.40853  0.61306  1.0000
  C   C71       1.0  0.98739  0.49344  0.06674  1.0000
  C   C72       1.0  0.98237  0.44900  0.37301  1.0000
  C   C73       1.0  0.97607  0.42216  0.52264  1.0000
  H   H65       1.0  0.93195  0.41177  0.55037  1.0000
  C   C74       1.0  0.50061  0.80197  0.51124  1.0000
  C   C75       1.0  0.49296  0.87733  0.25427  1.0000
  N   N2        1.0  0.48528  0.90786  0.11571  1.0000
  C   C76       1.0  0.52867  0.91602  0.02710  1.0000
  H   H66       1.0  0.57217  0.90109  0.05876  1.0000
  N   N3        1.0  0.02032  0.09195  0.63870  1.0000
  C   C77       1.0  0.97804  0.08713  0.54476  1.0000
  H   H67       1.0  0.93555  0.10617  0.57037  1.0000
  C   C78       1.0  0.50572  0.70082  0.51276  1.0000
  C   C79       1.0  0.51112  0.62682  0.25682  1.0000
  N   N4        1.0  0.51755  0.59731  0.11835  1.0000
  C   C80       1.0  0.47364  0.58377  0.03870  1.0000
  H   H68       1.0  0.42942  0.59204  0.07743  1.0000
  N   N5        1.0  0.01577  0.90652  0.39683  1.0000
  C   C81       1.0  0.98110  0.99180  0.93468  1.0000
  C   C82       1.0  0.97739  0.95116  0.62535  1.0000
  C   C83       1.0  0.97244  0.92776  0.47216  1.0000
  H   H69       1.0  0.92880  0.92851  0.42584  1.0000
  C   C84       1.0  0.49635  0.30634  0.49165  1.0000
  C   C85       1.0  0.48752  0.37966  0.74900  1.0000
  N   N6        1.0  0.47708  0.41085  0.88345  1.0000
  C   C86       1.0  0.51875  0.42775  0.96649  1.0000
  H   H70       1.0  0.56357  0.42313  0.92990  1.0000
  N   N7        1.0  0.02535  0.59537  0.36071  1.0000
  C   C87       1.0  0.98286  0.59011  0.45459  1.0000
  H   H71       1.0  0.94016  0.60844  0.42717  1.0000
  N   N8        1.0  0.48243  0.09383  0.86397  1.0000
  C   C88       1.0  0.52458  0.08652  0.95914  1.0000
  H   H72       1.0  0.56689  0.10272  0.93322  1.0000
  C   C89       1.0  0.94365  0.25708  0.22719  1.0000
  C   C90       1.0  0.86700  0.26342  0.48062  1.0000
  N   N9        1.0  0.83796  0.27174  0.62067  1.0000
  C   C91       1.0  0.76043  0.23321  0.16934  1.0000
  C   C92       1.0  0.80412  0.23231  0.86131  1.0000
  C   C93       1.0  0.82801  0.22820  0.70778  1.0000
  H   H73       1.0  0.66449  0.18243  0.82845  1.0000
  N   N10       1.0  0.34582  0.76839  0.12983  1.0000
  C   C94       1.0  0.33632  0.72418  0.21467  1.0000
  H   H74       1.0  0.17929  0.68130  0.34681  1.0000
  C   C95       1.0  0.04509  0.25495  0.24619  1.0000
  C   C96       1.0  0.11886  0.25869  0.50376  1.0000
  N   N11       1.0  0.15048  0.26633  0.63836  1.0000
  C   C97       1.0  0.23925  0.23159  0.17239  1.0000
  C   C98       1.0  0.19625  0.22791  0.86639  1.0000
  C   C99       1.0  0.16997  0.22279  0.71664  1.0000
  H   H75       1.0  0.32639  0.18849  0.84802  1.0000
  N   N12       1.0  0.66119  0.73072  0.12652  1.0000
  C   C100      1.0  0.74123  0.75938  0.67081  1.0000
  C   C101      1.0  0.69717  0.76741  0.36387  1.0000
  C   C102      1.0  0.67131  0.77371  0.21284  1.0000
  H   H76       1.0  0.83543  0.69558  0.33000  1.0000
  N   N13       1.0  0.15195  0.76742  0.35382  1.0000
  C   C103      1.0  0.24420  0.72736  0.83065  1.0000
  C   C104      1.0  0.20178  0.72640  0.13838  1.0000
  C   C105      1.0  0.17665  0.72342  0.29054  1.0000
  H   H77       1.0  0.34976  0.68088  0.17982  1.0000
  N   N14       1.0  0.65697  0.27002  0.87459  1.0000
  C   C106      1.0  0.73712  0.23297  0.32696  1.0000
  C   C107      1.0  0.69384  0.23087  0.63566  1.0000
  C   C108      1.0  0.67060  0.22646  0.78990  1.0000
  H   H78       1.0  0.83820  0.18433  0.67139  1.0000
  C   C109      1.0  0.94801  0.76380  0.77134  1.0000
  C   C110      1.0  0.87349  0.77257  0.51413  1.0000
  N   N15       1.0  0.84503  0.78244  0.37391  1.0000
  C   C111      1.0  0.76428  0.75533  0.82839  1.0000
  C   C112      1.0  0.80692  0.74705  0.13687  1.0000
  C   C113      1.0  0.83038  0.74007  0.29046  1.0000
  H   H79       1.0  0.65846  0.81767  0.18013  1.0000
  N   N16       1.0  0.34987  0.27363  0.85326  1.0000
  C   C114      1.0  0.25973  0.23258  0.33179  1.0000
  C   C115      1.0  0.30201  0.23307  0.63859  1.0000
  C   C116      1.0  0.32717  0.23035  0.79084  1.0000
  H   H80       1.0  0.16624  0.17883  0.67746  1.0000
  C  Sn1       1.0  0.43967  0.20708  0.13190  1.0000
  C   C117      1.0  0.46036  0.25225  0.21588  1.0000
  C  Sn2       1.0  0.43698  0.30742  0.19518  1.0000
  C  Sn3       1.0  0.39194  0.31765  0.08836  1.0000
  C   C118      1.0  0.37126  0.27250  0.00447  1.0000
  C  Sn4       1.0  0.39463  0.21732  0.02508  1.0000
  O  Te1       1.0  0.46368  0.15228  0.15446  1.0000
  O  Te2       1.0  0.45839  0.35189  0.28042  1.0000
  O  Te3       1.0  0.36793  0.37251  0.06585  1.0000
  O  Te4       1.0  0.37270  0.16926  0.93993  1.0000
  Mg  Mg1       1.0  0.41164  0.41907  0.20906  1.0000
  Mg  Mg2       1.0  0.41993  0.10567  0.01126  1.0000
  C  Sn5       1.0  0.54408  0.51941  0.71789  1.0000
  C   C119      1.0  0.50122  0.50288  0.61814  1.0000
  C  Sn6       1.0  0.44408  0.51807  0.64805  1.0000
  C  Sn7       1.0  0.42947  0.55047  0.78036  1.0000
  C   C120      1.0  0.47232  0.56699  0.88000  1.0000
  C  Sn8       1.0  0.52948  0.55181  0.85020  1.0000
  O  Te5       1.0  0.60093  0.50375  0.68573  1.0000
  O  Te6       1.0  0.40198  0.50104  0.54667  1.0000
  O  Te7       1.0  0.37257  0.56612  0.81246  1.0000
  O  Te8       1.0  0.57156  0.56883  0.95147  1.0000
  Mg  Mg3       1.0  0.33059  0.53282  0.63993  1.0000
  Mg  Mg4       1.0  0.64296  0.53710  0.85830  1.0000
  C  Sn9       1.0  0.08799  0.70380  0.67797  1.0000
  C   C121      1.0  0.06685  0.75003  0.76387  1.0000
  C  Sn10      1.0  0.06803  0.80531  0.70372  1.0000
  C  Sn11      1.0  0.09079  0.81458  0.55454  1.0000
  C   C122      1.0  0.11191  0.76837  0.46871  1.0000
  C  Sn12      1.0  0.11075  0.71307  0.52879  1.0000
  O  Te9       1.0  0.08638  0.64890  0.74039  1.0000
  O  Te10      1.0  0.04666  0.85086  0.79179  1.0000
  O  Te11      1.0  0.09238  0.86954  0.49216  1.0000
  O  Te12      1.0  0.13210  0.66755  0.44079  1.0000
  Mg  Mg5       1.0  0.05819  0.91774  0.65659  1.0000
  Mg  Mg6       1.0  0.12056  0.60065  0.57584  1.0000
  C  Sn13      1.0  0.44028  0.19285  0.59370  1.0000
  C   C123      1.0  0.48876  0.21155  0.51777  1.0000
  C  Sn14      1.0  0.54101  0.18127  0.53269  1.0000
  C  Sn15      1.0  0.54487  0.13123  0.62537  1.0000
  C   C124      1.0  0.49641  0.11255  0.70122  1.0000
  C  Sn16      1.0  0.44414  0.14282  0.68638  1.0000
  O  Te13      1.0  0.38849  0.22379  0.57712  1.0000
  O  Te14      1.0  0.58890  0.20080  0.45571  1.0000
  O  Te15      1.0  0.59672  0.10029  0.64190  1.0000
  O  Te16      1.0  0.39628  0.12330  0.76328  1.0000
  Mg  Mg7       1.0  0.64991  0.14398  0.51418  1.0000
  Mg  Mg8       1.0  0.33524  0.18006  0.70483  1.0000
  C  Sn17      1.0  0.60146  0.79692  0.78769  1.0000
  C   C125      1.0  0.57051  0.75381  0.72189  1.0000
  C  Sn18      1.0  0.56690  0.70112  0.79630  1.0000
  C  Sn19      1.0  0.59477  0.69131  0.93951  1.0000
  C   C126      1.0  0.62621  0.73801  0.00525  1.0000
  C  Sn20      1.0  0.62933  0.78712  0.93090  1.0000
  O  Te17      1.0  0.60450  0.84928  0.71127  1.0000
  O  Te18      1.0  0.53572  0.65867  0.72823  1.0000
  O  Te19      1.0  0.59224  0.64251  0.01591  1.0000
  O  Te20      1.0  0.66048  0.82955  0.99891  1.0000
  Mg  Mg9       1.0  0.54410  0.59448  0.87694  1.0000
  Mg  Mg10      1.0  0.65210  0.89376  0.85035  1.0000
  C  Sn21      1.0  0.94774  0.84539  0.07717  1.0000
  C   C127      1.0  0.99243  0.82172  0.98480  1.0000
  C  Sn22      1.0  0.04918  0.82724  0.03679  1.0000
  C  Sn23      1.0  0.06044  0.84964  0.18423  1.0000
  C   C128      1.0  0.01524  0.86967  0.27651  1.0000
  C  Sn24      1.0  0.95900  0.86778  0.22460  1.0000
  O  Te21      1.0  0.89187  0.84306  0.02286  1.0000
  O  Te22      1.0  0.09315  0.80335  0.94236  1.0000
  O  Te23      1.0  0.11637  0.85195  0.23849  1.0000
  O  Te24      1.0  0.91452  0.88805  0.31896  1.0000
  Mg  Mg11      1.0  0.16252  0.81915  0.06751  1.0000
  Mg  Mg12      1.0  0.84566  0.87584  0.19396  1.0000
  C  Sn25      1.0  0.56001  0.44889  0.25882  1.0000
  C   C129      1.0  0.51755  0.44002  0.14995  1.0000
  C  Sn26      1.0  0.46192  0.46182  0.17327  1.0000
  C  Sn27      1.0  0.44845  0.49317  0.30818  1.0000
  C   C130      1.0  0.49090  0.50205  0.41694  1.0000
  C  Sn28      1.0  0.54654  0.48025  0.39373  1.0000
  O  Te25      1.0  0.61534  0.42671  0.23313  1.0000
  O  Te26      1.0  0.42019  0.45237  0.06281  1.0000
  O  Te27      1.0  0.39307  0.51536  0.33380  1.0000
  O  Te28      1.0  0.58826  0.48969  0.50408  1.0000
  Mg  Mg13      1.0  0.35103  0.49119  0.14977  1.0000
  Mg  Mg14      1.0  0.65744  0.45092  0.41721  1.0000
  C  Sn29      1.0  0.28033  0.67175  0.46005  1.0000
  C   C131      1.0  0.29331  0.71822  0.36658  1.0000
  C  Sn30      1.0  0.29660  0.77246  0.42949  1.0000
  C  Sn31      1.0  0.28675  0.78042  0.58919  1.0000
  C   C132      1.0  0.27379  0.73397  0.68257  1.0000
  C  Sn32      1.0  0.27048  0.67971  0.61974  1.0000
  O  Te29      1.0  0.27726  0.61791  0.39468  1.0000
  O  Te30      1.0  0.30963  0.81826  0.33372  1.0000
  O  Te31      1.0  0.28983  0.83431  0.65451  1.0000
  O  Te32      1.0  0.25747  0.63393  0.71542  1.0000
  Mg  Mg15      1.0  0.30897  0.88337  0.47677  1.0000
  Mg  Mg16      1.0  0.25815  0.56880  0.57253  1.0000
  C  Sn33      1.0  0.95303  0.68565  0.09812  1.0000
  C   C133      1.0  0.99653  0.71295  0.02017  1.0000
  C  Sn34      1.0  0.05294  0.69169  0.02991  1.0000
  C  Sn35      1.0  0.06614  0.64208  0.11934  1.0000
  C   C134      1.0  0.02266  0.61480  0.19720  1.0000
  C  Sn36      1.0  0.96624  0.63604  0.18755  1.0000
  O  Te33      1.0  0.89695  0.70765  0.08675  1.0000
  O  Te34      1.0  0.09517  0.71612  0.95099  1.0000
  O  Te35      1.0  0.12228  0.62009  0.13066  1.0000
  O  Te36      1.0  0.92349  0.60802  0.26638  1.0000
  Mg  Mg17      1.0  0.16561  0.67334  0.00211  1.0000
  Mg  Mg18      1.0  0.85356  0.65435  0.21528  1.0000
  C  Sn37      1.0  0.57084  0.31611  0.17066  1.0000
  C   C135      1.0  0.54808  0.26844  0.24150  1.0000
  C  Sn38      1.0  0.57073  0.21385  0.21039  1.0000
  C  Sn39      1.0  0.61713  0.20676  0.10638  1.0000
  C   C136      1.0  0.63987  0.25441  0.03563  1.0000
  C  Sn40      1.0  0.61724  0.30902  0.06666  1.0000
  O  Te37      1.0  0.54753  0.37029  0.20348  1.0000
  O  Te38      1.0  0.54724  0.16684  0.28257  1.0000
  O  Te39      1.0  0.64043  0.15253  0.07361  1.0000
  O  Te40      1.0  0.64018  0.35240  0.99456  1.0000
  Mg  Mg19      1.0  0.59376  0.10172  0.20066  1.0000
  Mg  Mg20      1.0  0.59424  0.42115  0.07645  1.0000
  C  Sn41      1.0  0.92978  0.52996  0.79594  1.0000
  C   C137      1.0  0.97659  0.50808  0.88017  1.0000
  C  Sn42      1.0  0.03214  0.51745  0.83045  1.0000
  C  Sn43      1.0  0.04110  0.54940  0.69375  1.0000
  C   C138      1.0  0.99432  0.57127  0.60962  1.0000
  C  Sn44      1.0  0.93875  0.56191  0.65924  1.0000
  O  Te41      1.0  0.87463  0.52007  0.84780  1.0000
  O  Te42      1.0  0.07825  0.49512  0.91657  1.0000
  O  Te43      1.0  0.09632  0.55927  0.64193  1.0000
  O  Te44      1.0  0.89266  0.58423  0.57322  1.0000
  Mg  Mg21      1.0  0.14530  0.52010  0.79886  1.0000
  Mg  Mg22      1.0  0.82559  0.55930  0.69085  1.0000
  C  Sn45      1.0  0.46946  0.00611  0.27272  1.0000
  C   C139      1.0  0.51416  0.00073  0.37877  1.0000
  C  Sn46      1.0  0.56340  0.03144  0.35815  1.0000
  C  Sn47      1.0  0.56804  0.06832  0.22888  1.0000
  C   C140      1.0  0.52336  0.07370  0.12293  1.0000
  C  Sn48      1.0  0.47411  0.04299  0.14345  1.0000
  O  Te45      1.0  0.37939  0.97500  0.29563  1.0000
  O  Te46      1.0  0.60753  0.02534  0.46570  1.0000
  O  Te47      1.0  0.61693  0.09944  0.20604  1.0000
  O  Te48      1.0  0.42999  0.04909  0.03600  1.0000
  Mg  Mg23      1.0  0.66547  0.07675  0.38435  1.0000
  Mg  Mg24      1.0  0.33078  0.99772  0.11728  1.0000
  C  Sn49      1.0  0.05963  0.18537  0.91383  1.0000
  C   C141      1.0  0.01033  0.20665  0.98761  1.0000
  C  Sn50      1.0  0.95847  0.18047  0.96799  1.0000
  C  Sn51      1.0  0.95582  0.13198  0.87272  1.0000
  C   C142      1.0  0.00510  0.11071  0.79903  1.0000
  C  Sn52      1.0  0.05699  0.13688  0.81856  1.0000
  O  Te49      1.0  0.11103  0.21222  0.93510  1.0000
  O  Te50      1.0  0.91028  0.20615  0.04290  1.0000
  O  Te51      1.0  0.90437  0.10514  0.85149  1.0000
  O  Te52      1.0  0.10568  0.11483  0.74374  1.0000
  Mg  Mg25      1.0  0.84971  0.15107  0.97794  1.0000
  Mg  Mg26      1.0  0.16574  0.16625  0.80867  1.0000
  C  Sn53      1.0  0.46500  0.94968  0.75934  1.0000
  C   C143      1.0  0.51282  0.93018  0.84333  1.0000
  C  Sn54      1.0  0.56753  0.94438  0.79682  1.0000
  C  Sn55      1.0  0.57461  0.97881  0.66364  1.0000
  C   C144      1.0  0.56805  0.99829  0.57975  1.0000
  C  Sn56      1.0  0.47208  0.98410  0.62616  1.0000
  O  Te53      1.0  0.41071  0.93496  0.80796  1.0000
  O  Te54      1.0  0.61469  0.92437  0.88263  1.0000
  O  Te55      1.0  0.62897  0.99351  0.61507  1.0000
  O  Te56      1.0  0.46618  0.00410  0.54045  1.0000
  Mg  Mg27      1.0  0.67995  0.95594  0.77014  1.0000
  Mg  Mg28      1.0  0.35967  0.97258  0.65287  1.0000
  C  Sn57      1.0  0.41080  0.70206  0.92584  1.0000
  C   C145      1.0  0.38884  0.75076  0.99986  1.0000
  C  Sn58      1.0  0.39571  0.80466  0.93490  1.0000
  C  Sn59      1.0  0.42512  0.81000  0.79296  1.0000
  C   C146      1.0  0.44706  0.76133  0.71901  1.0000
  C  Sn60      1.0  0.44022  0.70741  0.78389  1.0000
  O  Te57      1.0  0.40343  0.64861  0.99288  1.0000
  O  Te58      1.0  0.37392  0.85633  0.01108  1.0000
  O  Te59      1.0  0.43248  0.86352  0.72595  1.0000
  O  Te60      1.0  0.46251  0.65936  0.70779  1.0000
  Mg  Mg29      1.0  0.39436  0.91628  0.87367  1.0000
  Mg  Mg30      1.0  0.44154  0.59579  0.84504  1.0000
  C  Sn61      1.0  0.92418  0.03786  0.29418  1.0000
  C   C147      1.0  0.97017  0.04328  0.39437  1.0000
  C  Sn62      1.0  0.02615  0.03892  0.33915  1.0000
  C  Sn63      1.0  0.03638  0.02897  0.18046  1.0000
  C   C148      1.0  0.99041  0.02357  0.08036  1.0000
  C  Sn64      1.0  0.93441  0.02791  0.13548  1.0000
  O  Te61      1.0  0.86856  0.04237  0.35190  1.0000
  O  Te62      1.0  0.07143  0.04447  0.44155  1.0000
  O  Te63      1.0  0.09205  0.02446  0.12279  1.0000
  O  Te64      1.0  0.88915  0.02238  0.03318  1.0000
  Mg  Mg31      1.0  0.13954  0.03508  0.30770  1.0000
  Mg  Mg32      1.0  0.82102  0.03179  0.16688  1.0000
