data_image0
_chemical_formula_structural       C4H2C5H2C5H2C5H2C4H2C9H6C3H2C9H6N8C2HCHC2HCHC12H6C5H2C5H2C11H6C10H6C9H6C9H6C9H6N8C2HCHC2HCHC2SnCSn2CSnTe4Mg2SnCSn2CSnTe4Mg2SnCSn2CSnTe4Mg2SnCSn2CSnTe4Mg2SnCSn2CSnTe4Mg2SnCSn2CSnTe4Mg2SnCSn2CSnTe4Mg2SnCSn2CSnTe4Mg2
_chemical_formula_sum              "C144 H72 N16 Sn32 Te32 Mg16"
_cell_length_a       30.648
_cell_length_b       24.3635
_cell_length_c       10.7536
_cell_angle_alpha    95.344
_cell_angle_beta     130.484
_cell_angle_gamma    89.9583

_symmetry_space_group_name_H-M    'P1'
_space_group_IT_number       1

loop_
  _space_group_symop_operation_xyz
  'x, y, z'

loop_
  _atom_site_type_symbol
  _atom_site_label
  _atom_site_symmetry_multiplicity
  _atom_site_fract_x
  _atom_site_fract_y
  _atom_site_fract_z
  _atom_site_occupancy
  C   C1        1.0  0.03192  0.55946  0.95802  1.0000
  C   C2        1.0  0.05780  0.47003  0.90974  1.0000
  C   C3        1.0  0.03568  0.38507  0.98107  1.0000
  C   C4        1.0  0.19661  0.25360  0.00457  1.0000
  H   H1        1.0  0.07713  0.44577  0.86889  1.0000
  H   H2        1.0  0.18250  0.20989  0.95433  1.0000
  C   C5        1.0  0.53149  0.06197  0.96500  1.0000
  C   C6        1.0  0.95611  0.44414  0.98569  1.0000
  C   C7        1.0  0.91701  0.53175  0.98402  1.0000
  C   C8        1.0  0.96109  0.62039  0.99596  1.0000
  C   C9        1.0  0.81387  0.74952  0.04374  1.0000
  H   H3        1.0  0.88744  0.55428  0.98876  1.0000
  H   H4        1.0  0.83450  0.78557  0.13799  1.0000
  C   C10       1.0  0.46952  0.94520  0.03199  1.0000
  C   C11       1.0  0.95655  0.56168  0.98217  1.0000
  C   C12       1.0  0.91594  0.47557  0.98180  1.0000
  C   C13       1.0  0.95967  0.38638  0.00027  1.0000
  C   C14       1.0  0.80126  0.25720  0.99740  1.0000
  H   H5        1.0  0.88399  0.45436  0.97828  1.0000
  H   H6        1.0  0.79133  0.21381  0.94349  1.0000
  C   C15       1.0  0.47026  0.06298  0.04118  1.0000
  C   C16       1.0  0.03057  0.44199  0.95742  1.0000
  C   C17       1.0  0.05822  0.52618  0.90918  1.0000
  C   C18       1.0  0.03998  0.61838  0.98931  1.0000
  C   C19       1.0  0.20399  0.74678  0.01449  1.0000
  H   H7        1.0  0.07761  0.54591  0.86700  1.0000
  H   H8        1.0  0.19336  0.78922  0.98487  1.0000
  C   C20       1.0  0.53036  0.94420  0.95415  1.0000
  C   C21       1.0  0.55392  0.97374  0.89843  1.0000
  C   C22       1.0  0.53291  0.88608  0.96085  1.0000
  C   C23       1.0  0.68419  0.75346  0.93996  1.0000
  H   H9        1.0  0.57021  0.95055  0.84668  1.0000
  H   H10       1.0  0.66770  0.71102  0.87792  1.0000
  C   C24       1.0  0.44709  0.03359  0.09827  1.0000
  C   C25       1.0  0.46812  0.12114  0.03522  1.0000
  C   C26       1.0  0.43021  0.15406  0.04666  1.0000
  C   C27       1.0  0.44822  0.20845  0.12827  1.0000
  C   C28       1.0  0.41044  0.24136  0.12485  1.0000
  C   C29       1.0  0.35372  0.22076  0.04404  1.0000
  C   C30       1.0  0.33569  0.16618  0.96360  1.0000
  C   C31       1.0  0.37310  0.13383  0.96419  1.0000
  C   C32       1.0  0.31752  0.25497  0.05598  1.0000
  H   H11       1.0  0.43118  0.05695  0.15106  1.0000
  H   H12       1.0  0.49250  0.22441  0.19673  1.0000
  H   H13       1.0  0.42507  0.28329  0.18868  1.0000
  H   H14       1.0  0.29196  0.15004  0.90077  1.0000
  H   H15       1.0  0.35809  0.09240  0.89740  1.0000
  H   H16       1.0  0.33327  0.29805  0.11200  1.0000
  C   C33       1.0  0.44694  0.97726  0.09449  1.0000
  C   C34       1.0  0.46559  0.88627  0.01304  1.0000
  C   C35       1.0  0.31830  0.74899  0.03470  1.0000
  H   H17       1.0  0.43093  0.95644  0.14450  1.0000
  H   H18       1.0  0.33270  0.70834  0.07670  1.0000
  C   C36       1.0  0.55437  0.03007  0.90331  1.0000
  C   C37       1.0  0.53629  0.12089  0.98644  1.0000
  C   C38       1.0  0.57661  0.15415  0.98703  1.0000
  C   C39       1.0  0.56370  0.20664  0.93107  1.0000
  C   C40       1.0  0.60431  0.24031  0.94797  1.0000
  C   C41       1.0  0.65860  0.22208  0.01524  1.0000
  C   C42       1.0  0.67127  0.16922  0.06824  1.0000
  C   C43       1.0  0.63154  0.13657  0.05702  1.0000
  C   C44       1.0  0.69865  0.25723  0.02250  1.0000
  H   H19       1.0  0.57101  0.05109  0.85531  1.0000
  H   H20       1.0  0.52115  0.22061  0.87203  1.0000
  H   H21       1.0  0.59371  0.28092  0.90516  1.0000
  H   H22       1.0  0.71298  0.15470  0.11986  1.0000
  H   H23       1.0  0.64323  0.09706  0.10606  1.0000
  H   H24       1.0  0.68881  0.30010  0.99718  1.0000
  N   N1        1.0  0.24386  0.27450  0.04436  1.0000
  N   N2        1.0  0.73390  0.77306  0.99378  1.0000
  N   N3        1.0  0.75934  0.73580  0.95642  1.0000
  N   N4        1.0  0.26904  0.23521  0.01064  1.0000
  N   N5        1.0  0.77682  0.27745  0.05303  1.0000
  N   N6        1.0  0.27212  0.76573  0.00358  1.0000
  N   N7        1.0  0.24673  0.72698  0.03106  1.0000
  N   N8        1.0  0.74352  0.23827  0.05026  1.0000
  C   C45       1.0  0.00030  0.35929  0.00189  1.0000
  C   C46       1.0  0.99383  0.53120  0.96987  1.0000
  H   H25       1.0  0.00599  0.31637  0.02602  1.0000
  C   C47       1.0  0.49854  0.85893  0.98266  1.0000
  H   H26       1.0  0.49770  0.81414  0.97686  1.0000
  C   C48       1.0  0.00442  0.64671  0.00865  1.0000
  C   C49       1.0  0.99354  0.47235  0.97129  1.0000
  H   H27       1.0  0.01059  0.69154  0.03468  1.0000
  C   C50       1.0  0.50282  0.14835  0.01466  1.0000
  H   H28       1.0  0.50386  0.19317  0.02134  1.0000
  C   C51       1.0  0.50042  0.03308  0.99988  1.0000
  C   C52       1.0  0.49999  0.97402  0.99499  1.0000
  C   C53       1.0  0.03942  0.55746  0.50258  1.0000
  C   C54       1.0  0.08860  0.47302  0.54837  1.0000
  C   C55       1.0  0.04357  0.38210  0.52145  1.0000
  C   C56       1.0  0.08446  0.34873  0.52477  1.0000
  C   C57       1.0  0.10688  0.30401  0.61859  1.0000
  C   C58       1.0  0.14539  0.27180  0.62426  1.0000
  C   C59       1.0  0.16391  0.28358  0.53869  1.0000
  C   C60       1.0  0.13986  0.32687  0.43872  1.0000
  C   C61       1.0  0.10059  0.35848  0.43124  1.0000
  C   C62       1.0  0.20815  0.25152  0.56180  1.0000
  H   H29       1.0  0.12600  0.45286  0.58193  1.0000
  H   H30       1.0  0.09514  0.29577  0.69151  1.0000
  H   H31       1.0  0.16333  0.23804  0.69984  1.0000
  H   H32       1.0  0.15243  0.33474  0.36733  1.0000
  H   H33       1.0  0.08111  0.39062  0.34995  1.0000
  H   H34       1.0  0.22146  0.21654  0.63380  1.0000
  C   C63       1.0  0.54417  0.05510  0.51896  1.0000
  C   C64       1.0  0.95490  0.43857  0.48565  1.0000
  C   C65       1.0  0.90503  0.52276  0.43618  1.0000
  C   C66       1.0  0.94923  0.61278  0.45893  1.0000
  C   C67       1.0  0.78782  0.73445  0.46042  1.0000
  H   H35       1.0  0.86900  0.54360  0.41027  1.0000
  H   H36       1.0  0.80698  0.76128  0.57523  1.0000
  C   C68       1.0  0.45664  0.93495  0.48411  1.0000
  C   C69       1.0  0.94920  0.55458  0.45844  1.0000
  C   C70       1.0  0.90745  0.46722  0.44709  1.0000
  C   C71       1.0  0.96043  0.38156  0.50954  1.0000
  C   C72       1.0  0.79413  0.25030  0.46746  1.0000
  H   H37       1.0  0.87246  0.44408  0.42569  1.0000
  H   H38       1.0  0.78415  0.20736  0.41039  1.0000
  C   C73       1.0  0.45674  0.05283  0.48963  1.0000
  C   C74       1.0  0.04321  0.44044  0.51862  1.0000
  C   C75       1.0  0.08707  0.52886  0.54208  1.0000
  C   C76       1.0  0.03677  0.61547  0.49368  1.0000
  C   C77       1.0  0.07900  0.64936  0.50307  1.0000
  C   C78       1.0  0.10165  0.70130  0.59973  1.0000
  C   C79       1.0  0.14195  0.73372  0.61206  1.0000
  C   C80       1.0  0.16146  0.71527  0.52879  1.0000
  C   C81       1.0  0.13728  0.66425  0.42672  1.0000
  C   C82       1.0  0.09674  0.63214  0.41369  1.0000
  C   C83       1.0  0.20622  0.74868  0.55265  1.0000
  H   H39       1.0  0.12341  0.55251  0.57169  1.0000
  H   H40       1.0  0.08880  0.71499  0.67029  1.0000
  H   H41       1.0  0.16053  0.77292  0.69165  1.0000
  H   H42       1.0  0.15078  0.65099  0.35758  1.0000
  H   H43       1.0  0.07737  0.59360  0.33109  1.0000
  H   H44       1.0  0.22009  0.78956  0.62484  1.0000
  C   C84       1.0  0.54374  0.93743  0.51194  1.0000
  C   C85       1.0  0.58978  0.96986  0.54491  1.0000
  C   C86       1.0  0.54147  0.87863  0.49969  1.0000
  C   C87       1.0  0.57941  0.84676  0.48542  1.0000
  C   C88       1.0  0.60268  0.79911  0.56467  1.0000
  C   C89       1.0  0.63737  0.76823  0.54862  1.0000
  C   C90       1.0  0.64943  0.78348  0.45008  1.0000
  C   C91       1.0  0.62547  0.83060  0.36781  1.0000
  C   C92       1.0  0.59147  0.86161  0.38587  1.0000
  C   C93       1.0  0.68655  0.75071  0.43752  1.0000
  H   H45       1.0  0.62585  0.94913  0.57092  1.0000
  H   H46       1.0  0.59464  0.78729  0.64347  1.0000
  H   H47       1.0  0.65667  0.73272  0.61637  1.0000
  H   H48       1.0  0.63367  0.84206  0.28880  1.0000
  H   H49       1.0  0.57239  0.89706  0.31830  1.0000
  H   H50       1.0  0.70277  0.71406  0.50325  1.0000
  C   C94       1.0  0.41021  0.02024  0.45362  1.0000
  C   C95       1.0  0.45962  0.11164  0.50415  1.0000
  C   C96       1.0  0.41996  0.14455  0.50803  1.0000
  C   C97       1.0  0.39940  0.19166  0.42418  1.0000
  C   C98       1.0  0.36205  0.22368  0.42482  1.0000
  C   C99       1.0  0.34310  0.20955  0.50772  1.0000
  C   C100      1.0  0.36525  0.16370  0.59764  1.0000
  C   C101      1.0  0.40307  0.13200  0.59792  1.0000
  C   C102      1.0  0.29974  0.24167  0.48940  1.0000
  H   H51       1.0  0.37376  0.04084  0.42555  1.0000
  H   H52       1.0  0.41142  0.20179  0.35318  1.0000
  H   H53       1.0  0.34528  0.25910  0.35581  1.0000
  H   H54       1.0  0.35227  0.15378  0.66669  1.0000
  H   H55       1.0  0.42083  0.09754  0.67070  1.0000
  H   H56       1.0  0.28682  0.27746  0.42064  1.0000
  C   C103      1.0  0.41000  0.96397  0.45007  1.0000
  C   C104      1.0  0.46016  0.87703  0.49629  1.0000
  C   C105      1.0  0.42118  0.84396  0.50208  1.0000
  C   C106      1.0  0.40251  0.78884  0.42652  1.0000
  C   C107      1.0  0.36415  0.75772  0.42508  1.0000
  C   C108      1.0  0.34256  0.78043  0.49929  1.0000
  C   C109      1.0  0.36363  0.83441  0.58371  1.0000
  C   C110      1.0  0.40214  0.86523  0.58535  1.0000
  C   C111      1.0  0.29852  0.74828  0.48148  1.0000
  H   H57       1.0  0.37316  0.94049  0.41794  1.0000
  H   H58       1.0  0.41673  0.77124  0.36261  1.0000
  H   H59       1.0  0.34842  0.71607  0.35960  1.0000
  H   H60       1.0  0.34936  0.85116  0.64834  1.0000
  H   H61       1.0  0.41895  0.90616  0.65494  1.0000
  H   H62       1.0  0.28665  0.70571  0.42028  1.0000
  C   C112      1.0  0.59002  0.02608  0.54840  1.0000
  C   C113      1.0  0.54242  0.11335  0.51494  1.0000
  C   C114      1.0  0.58287  0.14739  0.51728  1.0000
  C   C115      1.0  0.60600  0.19939  0.61342  1.0000
  C   C116      1.0  0.64390  0.23262  0.61772  1.0000
  C   C117      1.0  0.66040  0.21494  0.52601  1.0000
  C   C118      1.0  0.63605  0.16363  0.42549  1.0000
  C   C119      1.0  0.59804  0.13065  0.42113  1.0000
  C   C120      1.0  0.70262  0.24926  0.54076  1.0000
  H   H63       1.0  0.62629  0.04958  0.57730  1.0000
  H   H64       1.0  0.59531  0.21258  0.68950  1.0000
  H   H65       1.0  0.66267  0.27195  0.69670  1.0000
  H   H66       1.0  0.64719  0.15091  0.35007  1.0000
  H   H67       1.0  0.57847  0.09197  0.33939  1.0000
  H   H68       1.0  0.71571  0.29080  0.60900  1.0000
  N   N9        1.0  0.23301  0.26427  0.50507  1.0000
  N   N10       1.0  0.70001  0.76385  0.35154  1.0000
  N   N11       1.0  0.73286  0.73148  0.33835  1.0000
  N   N12       1.0  0.27467  0.22812  0.54511  1.0000
  N   N13       1.0  0.76605  0.27046  0.51158  1.0000
  N   N14       1.0  0.27199  0.76888  0.53041  1.0000
  N   N15       1.0  0.23036  0.73044  0.49416  1.0000
  N   N16       1.0  0.72606  0.23111  0.48001  1.0000
  C   C121      1.0  0.00369  0.35523  0.52314  1.0000
  C   C122      1.0  0.99516  0.52674  0.48380  1.0000
  H   H69       1.0  0.00585  0.31118  0.53342  1.0000
  C   C123      1.0  0.50147  0.85067  0.49920  1.0000
  H   H70       1.0  0.50229  0.80607  0.49984  1.0000
  C   C124      1.0  0.99280  0.64166  0.47765  1.0000
  C   C125      1.0  0.99764  0.46844  0.49548  1.0000
  H   H71       1.0  0.99140  0.68612  0.47436  1.0000
  C   C126      1.0  0.50134  0.13978  0.51216  1.0000
  H   H72       1.0  0.50190  0.18456  0.51661  1.0000
  C   C127      1.0  0.50031  0.02456  0.50234  1.0000
  C   C128      1.0  0.50017  0.96557  0.49929  1.0000
  C  Sn1       1.0  0.88594  0.25882  0.46622  1.0000
  C   C129      1.0  0.85849  0.27363  0.52771  1.0000
  C  Sn2       1.0  0.85847  0.32915  0.57389  1.0000
  C  Sn3       1.0  0.88644  0.37074  0.55819  1.0000
  C   C130      1.0  0.91387  0.35593  0.49670  1.0000
  C  Sn4       1.0  0.91392  0.30042  0.45051  1.0000
  O  Te1       1.0  0.88541  0.20307  0.42080  1.0000
  O  Te2       1.0  0.83075  0.34294  0.63509  1.0000
  O  Te3       1.0  0.88695  0.42653  0.60367  1.0000
  O  Te4       1.0  0.94161  0.28662  0.38932  1.0000
  Mg  Mg1       1.0  0.84326  0.42459  0.68039  1.0000
  Mg  Mg2       1.0  0.92910  0.20499  0.34391  1.0000
  C  Sn5       1.0  0.37001  0.87156  0.99863  1.0000
  C   C131      1.0  0.19605  0.81994  0.04845  1.0000
  C  Sn6       1.0  0.21466  0.76664  0.07708  1.0000
  C  Sn7       1.0  0.17873  0.72315  0.05535  1.0000
  C   C132      1.0  0.12495  0.73388  0.00553  1.0000
  C  Sn8       1.0  0.33408  0.82807  0.97690  1.0000
  O  Te5       1.0  0.35228  0.92515  0.97071  1.0000
  O  Te6       1.0  0.26864  0.75694  0.12686  1.0000
  O  Te7       1.0  0.19651  0.66953  0.08332  1.0000
  O  Te8       1.0  0.28014  0.83778  0.92712  1.0000
  Mg  Mg3       1.0  0.27363  0.67695  0.14953  1.0000
  Mg  Mg4       1.0  0.27509  0.91774  0.90433  1.0000
  C  Sn9       1.0  0.86232  0.36004  0.06777  1.0000
  C   C133      1.0  0.06179  0.34909  0.98041  1.0000
  C  Sn10      1.0  0.08201  0.31509  0.91823  1.0000
  C  Sn11      1.0  0.13156  0.33327  0.94399  1.0000
  C   C134      1.0  0.93207  0.34418  0.03132  1.0000
  C  Sn12      1.0  0.91188  0.37822  0.09353  1.0000
  O  Te9       1.0  0.84135  0.39335  0.12883  1.0000
  O  Te10      1.0  0.05298  0.26343  0.83123  1.0000
  O  Te11      1.0  0.15252  0.29991  0.88283  1.0000
  O  Te12      1.0  0.94088  0.42984  0.18051  1.0000
  Mg  Mg5       1.0  0.09816  0.23299  0.77228  1.0000
  Mg  Mg6       1.0  0.89576  0.46030  0.23957  1.0000
  C  Sn13      1.0  0.13956  0.37554  0.03526  1.0000
  C   C135      1.0  0.31167  0.39992  0.96937  1.0000
  C  Sn14      1.0  0.29355  0.34382  0.93400  1.0000
  C  Sn15      1.0  0.33189  0.30337  0.96522  1.0000
  C   C136      1.0  0.15974  0.27900  0.03109  1.0000
  C  Sn16      1.0  0.17789  0.33509  0.06648  1.0000
  O  Te13      1.0  0.15675  0.43185  0.06968  1.0000
  O  Te14      1.0  0.23769  0.32831  0.86812  1.0000
  O  Te15      1.0  0.31464  0.24702  0.93073  1.0000
  O  Te16      1.0  0.23372  0.35060  0.13234  1.0000
  Mg  Mg7       1.0  0.23433  0.24651  0.84205  1.0000
  Mg  Mg8       1.0  0.23713  0.43239  0.15854  1.0000
  C  Sn17      1.0  0.94197  0.69570  0.17109  1.0000
  C   C137      1.0  0.92623  0.65292  0.04968  1.0000
  C  Sn18      1.0  0.09769  0.68643  0.89900  1.0000
  C  Sn19      1.0  0.05626  0.72257  0.86900  1.0000
  C   C138      1.0  0.07200  0.76533  0.99035  1.0000
  C  Sn20      1.0  0.90053  0.73184  0.14109  1.0000
  O  Te17      1.0  0.99851  0.70231  0.32081  1.0000
  O  Te18      1.0  0.08297  0.64336  0.77954  1.0000
  O  Te19      1.0  0.99968  0.71592  0.71913  1.0000
  O  Te20      1.0  0.91526  0.77489  0.26049  1.0000
  Mg  Mg9       1.0  0.00050  0.65120  0.59509  1.0000
  Mg  Mg10      1.0  0.99772  0.76710  0.44494  1.0000
  C  Sn21      1.0  0.57552  0.77486  0.82736  1.0000
  C   C139      1.0  0.63311  0.78827  0.90529  1.0000
  C  Sn22      1.0  0.43567  0.79367  0.02339  1.0000
  C  Sn23      1.0  0.40788  0.82726  0.06455  1.0000
  C   C140      1.0  0.57811  0.85475  0.98666  1.0000
  C  Sn24      1.0  0.54774  0.80845  0.86852  1.0000
  O  Te21      1.0  0.54603  0.72838  0.70968  1.0000
  O  Te22      1.0  0.49320  0.80624  0.09959  1.0000
  O  Te23      1.0  0.43743  0.87377  0.18234  1.0000
  O  Te24      1.0  0.49024  0.79587  0.79236  1.0000
  Mg  Mg11      1.0  0.51516  0.87384  0.25210  1.0000
  Mg  Mg12      1.0  0.46825  0.72827  0.63990  1.0000
  C  Sn25      1.0  0.15615  0.63982  0.11589  1.0000
  C   C141      1.0  0.10337  0.65502  0.06620  1.0000
  C  Sn26      1.0  0.30572  0.74088  0.97699  1.0000
  C  Sn27      1.0  0.33360  0.77126  0.93651  1.0000
  C   C142      1.0  0.38634  0.75605  0.98618  1.0000
  C  Sn28      1.0  0.18404  0.67020  0.07542  1.0000
  O  Te25      1.0  0.18079  0.59472  0.20497  1.0000
  O  Te26      1.0  0.25294  0.75531  0.92871  1.0000
  O  Te27      1.0  0.30892  0.81639  0.84737  1.0000
  O  Te28      1.0  0.23678  0.65577  0.12366  1.0000
  Mg  Mg13      1.0  0.23658  0.81994  0.80928  1.0000
  Mg  Mg14      1.0  0.25316  0.59113  0.24302  1.0000
  C  Sn29      1.0  0.90008  0.71331  0.59580  1.0000
  C   C143      1.0  0.84124  0.71592  0.46590  1.0000
  C  Sn30      1.0  0.81163  0.67770  0.32434  1.0000
  C  Sn31      1.0  0.84145  0.63598  0.31239  1.0000
  C   C144      1.0  0.90025  0.63339  0.44223  1.0000
  C  Sn32      1.0  0.92990  0.67159  0.58384  1.0000
  O  Te29      1.0  0.92881  0.75194  0.73616  1.0000
  O  Te30      1.0  0.75281  0.68115  0.19607  1.0000
  O  Te31      1.0  0.81266  0.59734  0.17187  1.0000
  O  Te32      1.0  0.98868  0.66815  0.71207  1.0000
  Mg  Mg15      1.0  0.73258  0.61906  0.03010  1.0000
  Mg  Mg16      1.0  0.00894  0.73020  0.87811  1.0000
