data_image0
_chemical_formula_structural       N6C36HNH7NH7NH7NH7NH3NH6C12O6N6C42HNH7NH7NH7NH7NH7NH6C12O6SnCSn2CSnTe4Mg2
_chemical_formula_sum              "N24 C104 H80 O12 Sn4 Te4 Mg2"
_cell_length_a       30.0467
_cell_length_b       30.3387
_cell_length_c       7.94117
_cell_angle_alpha    62.0049
_cell_angle_beta     116.702
_cell_angle_gamma    120.253

_symmetry_space_group_name_H-M    'P1'
_space_group_IT_number       1

loop_
  _space_group_symop_operation_xyz
  'x, y, z'

loop_
  _atom_site_type_symbol
  _atom_site_label
  _atom_site_symmetry_multiplicity
  _atom_site_fract_x
  _atom_site_fract_y
  _atom_site_fract_z
  _atom_site_occupancy
  N   N1        1.0  0.41057  0.60765  0.22430  1.0000
  N   N2        1.0  0.39971  0.81045  0.26961  1.0000
  N   N3        1.0  0.19100  0.59114  0.25475  1.0000
  N   N4        1.0  0.58965  0.39859  0.28172  1.0000
  N   N5        1.0  0.60027  0.19011  0.28153  1.0000
  N   N6        1.0  0.80312  0.41359  0.20523  1.0000
  C   C1        1.0  0.36169  0.59784  0.22022  1.0000
  C   C2        1.0  0.43125  0.57615  0.21854  1.0000
  C   C3        1.0  0.40564  0.52026  0.24343  1.0000
  C   C4        1.0  0.43446  0.49463  0.24907  1.0000
  C   C5        1.0  0.48667  0.52128  0.22986  1.0000
  C   C6        1.0  0.51049  0.57715  0.19773  1.0000
  C   C7        1.0  0.48300  0.60336  0.19222  1.0000
  C   C8        1.0  0.41174  0.77202  0.27982  1.0000
  C   C9        1.0  0.43102  0.86321  0.27439  1.0000
  C   C10       1.0  0.48435  0.89231  0.25916  1.0000
  C   C11       1.0  0.51019  0.94535  0.26421  1.0000
  C   C12       1.0  0.48578  0.97234  0.27652  1.0000
  C   C13       1.0  0.43190  0.94327  0.28230  1.0000
  C   C14       1.0  0.40599  0.89025  0.28421  1.0000
  C   C15       1.0  0.22757  0.64140  0.23684  1.0000
  C   C16       1.0  0.13742  0.56902  0.25479  1.0000
  C   C17       1.0  0.11109  0.59503  0.26549  1.0000
  C   C18       1.0  0.05648  0.56775  0.25612  1.0000
  C   C19       1.0  0.02653  0.51552  0.24238  1.0000
  C   C20       1.0  0.05387  0.49011  0.23583  1.0000
  C   C21       1.0  0.10768  0.51641  0.24256  1.0000
  C   C22       1.0  0.63664  0.41045  0.26106  1.0000
  C   C23       1.0  0.56837  0.43177  0.27305  1.0000
  C   C24       1.0  0.59892  0.48217  0.30872  1.0000
  C   C25       1.0  0.57091  0.51031  0.29301  1.0000
  C   C26       1.0  0.51477  0.49099  0.24337  1.0000
  C   C27       1.0  0.48575  0.44063  0.21089  1.0000
  C   C28       1.0  0.51208  0.41178  0.22627  1.0000
  C   C29       1.0  0.58994  0.22562  0.30002  1.0000
  C   C30       1.0  0.76750  0.36280  0.24118  1.0000
  C   C31       1.0  0.85746  0.43463  0.21578  1.0000
  C   C32       1.0  0.88413  0.40914  0.20467  1.0000
  C   C33       1.0  0.93911  0.43640  0.21866  1.0000
  C   C34       1.0  0.96911  0.48823  0.23660  1.0000
  C   C35       1.0  0.94104  0.51285  0.24298  1.0000
  C   C36       1.0  0.88712  0.48638  0.23456  1.0000
  H   H1        1.0  0.32815  0.56089  0.20227  1.0000
  N   N7        1.0  0.35497  0.48795  0.27653  1.0000
  H   H2        1.0  0.43701  0.64575  0.24050  1.0000
  H   H3        1.0  0.50109  0.64655  0.16579  1.0000
  H   H4        1.0  0.41542  0.45128  0.27781  1.0000
  H   H5        1.0  0.54985  0.60014  0.17154  1.0000
  H   H6        1.0  0.34044  0.45223  0.25375  1.0000
  H   H7        1.0  0.32681  0.50465  0.19601  1.0000
  H   H8        1.0  0.45302  0.77746  0.31165  1.0000
  N   N8        1.0  0.51284  0.86926  0.24751  1.0000
  H   H9        1.0  0.35804  0.79599  0.25037  1.0000
  H   H10       1.0  0.36492  0.86793  0.29480  1.0000
  H   H11       1.0  0.55083  0.96639  0.25054  1.0000
  H   H12       1.0  0.41030  0.96109  0.29385  1.0000
  H   H13       1.0  0.54420  0.89844  0.19160  1.0000
  H   H14       1.0  0.49003  0.84487  0.16021  1.0000
  H   H15       1.0  0.21772  0.67304  0.22303  1.0000
  N   N9        1.0  0.13645  0.64720  0.27932  1.0000
  H   H16       1.0  0.20756  0.56682  0.26026  1.0000
  H   H17       1.0  0.12793  0.49657  0.23384  1.0000
  H   H18       1.0  0.03781  0.58840  0.26878  1.0000
  H   H19       1.0  0.03330  0.44997  0.22216  1.0000
  H   H20       1.0  0.11512  0.65442  0.32692  1.0000
  H   H21       1.0  0.17487  0.65570  0.36833  1.0000
  H   H22       1.0  0.66597  0.45139  0.24045  1.0000
  N   N10       1.0  0.65521  0.50515  0.35527  1.0000
  H   H23       1.0  0.56551  0.35779  0.29389  1.0000
  H   H24       1.0  0.48960  0.37330  0.19724  1.0000
  H   H25       1.0  0.59469  0.54755  0.33064  1.0000
  H   H26       1.0  0.44223  0.42465  0.16730  1.0000
  H   H27       1.0  0.67525  0.47914  0.44252  1.0000
  H   H28       1.0  0.67042  0.53401  0.41926  1.0000
  H   H29       1.0  0.55206  0.21433  0.32340  1.0000
  N   N11       1.0  0.48435  0.13532  0.26729  1.0000
  H   H30       1.0  0.63994  0.20723  0.26961  1.0000
  H   H31       1.0  0.44587  0.10992  0.26544  1.0000
  H   H32       1.0  0.77809  0.33007  0.26991  1.0000
  N   N12       1.0  0.85832  0.35743  0.18644  1.0000
  H   H33       1.0  0.78586  0.43952  0.18069  1.0000
  H   H34       1.0  0.86649  0.50543  0.24527  1.0000
  H   H35       1.0  0.95777  0.41565  0.20692  1.0000
  H   H36       1.0  0.96148  0.55232  0.26091  1.0000
  H   H37       1.0  0.81931  0.34776  0.10296  1.0000
  H   H38       1.0  0.87859  0.35023  0.13437  1.0000
  C   C37       1.0  0.61173  0.31578  0.28989  1.0000
  C   C38       1.0  0.64910  0.37155  0.26259  1.0000
  C   C39       1.0  0.68054  0.29332  0.27496  1.0000
  C   C40       1.0  0.62798  0.27744  0.29243  1.0000
  C   C41       1.0  0.69984  0.38957  0.22676  1.0000
  C   C42       1.0  0.71681  0.34947  0.25023  1.0000
  C   C43       1.0  0.38968  0.68606  0.25583  1.0000
  C   C44       1.0  0.34949  0.63416  0.23617  1.0000
  C   C45       1.0  0.31676  0.70980  0.23474  1.0000
  C   C46       1.0  0.37221  0.72294  0.25677  1.0000
  C   C47       1.0  0.29492  0.61663  0.23892  1.0000
  C   C48       1.0  0.27903  0.65537  0.23324  1.0000
  O   O1        1.0  0.56518  0.30120  0.30346  1.0000
  O   O2        1.0  0.69525  0.26045  0.27576  1.0000
  O   O3        1.0  0.72857  0.43990  0.17112  1.0000
  O   O4        1.0  0.43850  0.69974  0.26962  1.0000
  O   O5        1.0  0.30165  0.74356  0.22510  1.0000
  O   O6        1.0  0.26180  0.56845  0.24612  1.0000
  N   N13       1.0  0.41199  0.60261  0.72473  1.0000
  N   N14       1.0  0.40196  0.80605  0.76884  1.0000
  N   N15       1.0  0.19173  0.58821  0.74643  1.0000
  N   N16       1.0  0.59126  0.39378  0.78462  1.0000
  N   N17       1.0  0.60236  0.18586  0.78188  1.0000
  N   N18       1.0  0.80404  0.41220  0.69349  1.0000
  C   C49       1.0  0.36256  0.59333  0.71493  1.0000
  C   C50       1.0  0.43312  0.57147  0.71944  1.0000
  C   C51       1.0  0.40782  0.51567  0.74367  1.0000
  C   C52       1.0  0.43661  0.49038  0.74756  1.0000
  C   C53       1.0  0.48872  0.51737  0.72765  1.0000
  C   C54       1.0  0.51244  0.57311  0.69717  1.0000
  C   C55       1.0  0.48485  0.59908  0.69254  1.0000
  C   C56       1.0  0.41377  0.76746  0.77956  1.0000
  C   C57       1.0  0.43387  0.85856  0.77607  1.0000
  C   C58       1.0  0.48733  0.88758  0.76188  1.0000
  C   C59       1.0  0.51219  0.94102  0.76260  1.0000
  C   C60       1.0  0.48772  0.96746  0.77817  1.0000
  C   C61       1.0  0.43431  0.93790  0.78928  1.0000
  C   C62       1.0  0.40866  0.88524  0.78710  1.0000
  C   C63       1.0  0.22909  0.63801  0.73333  1.0000
  C   C64       1.0  0.13874  0.56583  0.75251  1.0000
  C   C65       1.0  0.11276  0.59134  0.76772  1.0000
  C   C66       1.0  0.05856  0.56375  0.76385  1.0000
  C   C67       1.0  0.02816  0.51207  0.74561  1.0000
  C   C68       1.0  0.05522  0.48692  0.73615  1.0000
  C   C69       1.0  0.10879  0.51326  0.74059  1.0000
  C   C70       1.0  0.63790  0.40576  0.76219  1.0000
  C   C71       1.0  0.57046  0.42750  0.77398  1.0000
  C   C72       1.0  0.60105  0.47862  0.80378  1.0000
  C   C73       1.0  0.57303  0.50700  0.78563  1.0000
  C   C74       1.0  0.51699  0.48748  0.73998  1.0000
  C   C75       1.0  0.48815  0.43637  0.71438  1.0000
  C   C76       1.0  0.51433  0.40719  0.73196  1.0000
  C   C77       1.0  0.59196  0.22281  0.79067  1.0000
  C   C78       1.0  0.57098  0.13317  0.77714  1.0000
  C   C79       1.0  0.51587  0.10595  0.77136  1.0000
  C   C80       1.0  0.49108  0.05211  0.77628  1.0000
  C   C81       1.0  0.51703  0.02364  0.78139  1.0000
  C   C82       1.0  0.57141  0.05211  0.78151  1.0000
  C   C83       1.0  0.59711  0.10521  0.77910  1.0000
  C   C84       1.0  0.76913  0.36095  0.73311  1.0000
  C   C85       1.0  0.85868  0.43344  0.70654  1.0000
  C   C86       1.0  0.88576  0.40640  0.70624  1.0000
  C   C87       1.0  0.94114  0.43271  0.72753  1.0000
  C   C88       1.0  0.97069  0.48534  0.73820  1.0000
  C   C89       1.0  0.94242  0.51192  0.73210  1.0000
  C   C90       1.0  0.88790  0.48622  0.71726  1.0000
  H   H39       1.0  0.32876  0.55741  0.68746  1.0000
  N   N19       1.0  0.35756  0.48286  0.78071  1.0000
  H   H40       1.0  0.43821  0.64046  0.74324  1.0000
  H   H41       1.0  0.50253  0.64226  0.66557  1.0000
  H   H42       1.0  0.41753  0.44715  0.77348  1.0000
  H   H43       1.0  0.55177  0.59628  0.67110  1.0000
  H   H44       1.0  0.34122  0.44841  0.74655  1.0000
  H   H45       1.0  0.33026  0.49999  0.71462  1.0000
  H   H46       1.0  0.45529  0.77300  0.81476  1.0000
  N   N20       1.0  0.51673  0.86467  0.75538  1.0000
  H   H47       1.0  0.36017  0.79195  0.74743  1.0000
  H   H48       1.0  0.36774  0.86269  0.79840  1.0000
  H   H49       1.0  0.55232  0.96301  0.74375  1.0000
  H   H50       1.0  0.41289  0.95525  0.80496  1.0000
  H   H51       1.0  0.49489  0.83884  0.67406  1.0000
  H   H52       1.0  0.54885  0.89352  0.70359  1.0000
  H   H53       1.0  0.22067  0.67002  0.72449  1.0000
  N   N21       1.0  0.13769  0.64393  0.77685  1.0000
  H   H54       1.0  0.20777  0.56396  0.74857  1.0000
  H   H55       1.0  0.12845  0.49370  0.72761  1.0000
  H   H56       1.0  0.04036  0.58385  0.78211  1.0000
  H   H57       1.0  0.03409  0.44738  0.71734  1.0000
  H   H58       1.0  0.17577  0.65307  0.86772  1.0000
  H   H59       1.0  0.11591  0.65165  0.82039  1.0000
  H   H60       1.0  0.66709  0.44657  0.74391  1.0000
  N   N22       1.0  0.65728  0.50232  0.84514  1.0000
  H   H61       1.0  0.56656  0.35334  0.79410  1.0000
  H   H62       1.0  0.49146  0.36792  0.70931  1.0000
  H   H63       1.0  0.59703  0.54480  0.81888  1.0000
  H   H64       1.0  0.44471  0.41996  0.67599  1.0000
  H   H65       1.0  0.67237  0.53250  0.90272  1.0000
  H   H66       1.0  0.67765  0.47671  0.93864  1.0000
  H   H67       1.0  0.55344  0.21297  0.80424  1.0000
  N   N23       1.0  0.48623  0.13085  0.76610  1.0000
  H   H68       1.0  0.64264  0.20249  0.77910  1.0000
  H   H69       1.0  0.63892  0.12678  0.77741  1.0000
  H   H70       1.0  0.44897  0.03203  0.77342  1.0000
  H   H71       1.0  0.59377  0.03343  0.77882  1.0000
  H   H72       1.0  0.44683  0.10661  0.75173  1.0000
  H   H73       1.0  0.49001  0.16778  0.66163  1.0000
  H   H74       1.0  0.78036  0.32832  0.76515  1.0000
  N   N24       1.0  0.86003  0.35420  0.69226  1.0000
  H   H75       1.0  0.78643  0.43777  0.66950  1.0000
  H   H76       1.0  0.86678  0.50658  0.71813  1.0000
  H   H77       1.0  0.96085  0.41129  0.72535  1.0000
  H   H78       1.0  0.96266  0.55245  0.74192  1.0000
  H   H79       1.0  0.82131  0.34507  0.60599  1.0000
  H   H80       1.0  0.88112  0.34606  0.64689  1.0000
  C   C91       1.0  0.61312  0.31231  0.78227  1.0000
  C   C92       1.0  0.65032  0.36761  0.75898  1.0000
  C   C93       1.0  0.68304  0.29018  0.77298  1.0000
  C   C94       1.0  0.63006  0.27444  0.78530  1.0000
  C   C95       1.0  0.70077  0.38648  0.72085  1.0000
  C   C96       1.0  0.71843  0.34686  0.74299  1.0000
  C   C97       1.0  0.39092  0.68122  0.75375  1.0000
  C   C98       1.0  0.35045  0.62948  0.73262  1.0000
  C   C99       1.0  0.31853  0.70572  0.73088  1.0000
  C   C100      1.0  0.37403  0.71858  0.75425  1.0000
  C   C101      1.0  0.29573  0.61249  0.73318  1.0000
  C   C102      1.0  0.28027  0.65145  0.72849  1.0000
  O   O7        1.0  0.56654  0.29743  0.79586  1.0000
  O   O8        1.0  0.69802  0.25633  0.78246  1.0000
  O   O9        1.0  0.72875  0.43699  0.66780  1.0000
  O   O10       1.0  0.43970  0.69426  0.76859  1.0000
  O   O11       1.0  0.30384  0.73983  0.72126  1.0000
  O   O12       1.0  0.26232  0.56446  0.73968  1.0000
  C  Sn1       1.0  0.48603  0.06834  0.21349  1.0000
  C   C103      1.0  0.51137  0.03334  0.27263  1.0000
  C  Sn2       1.0  0.56727  0.05167  0.32511  1.0000
  C  Sn3       1.0  0.59850  0.10610  0.31847  1.0000
  C   C104      1.0  0.57316  0.14106  0.25939  1.0000
  C  Sn4       1.0  0.51726  0.12277  0.20685  1.0000
  O  Te1       1.0  0.43010  0.04915  0.16168  1.0000
  O  Te2       1.0  0.59170  0.01593  0.38368  1.0000
  O  Te3       1.0  0.65447  0.12527  0.37033  1.0000
  O  Te4       1.0  0.49283  0.15848  0.14834  1.0000
  Mg  Mg1       1.0  0.66913  0.06113  0.44032  1.0000
  Mg  Mg2       1.0  0.41541  0.11332  0.09176  1.0000
