data_image0
_chemical_formula_structural       C4H2NC4H2NC4H2NC4H2NC4H2NC4H2NC4H2NC4H2NC2HC2HC2HC2HC4H2NC4H2NC4H2NC4H2NC4H2NC4H2NC4H2NC4H2NC2HC2HC2HC2HC2Sn2C2HTe2HMgC2Sn2C2HTe2HMgC2Sn2C2HTe2HMgC2Sn2C2HTe2HMgC2Sn2C2HTe2HMgC2Sn2C2HTe2HMgC2Sn2C2HTe2HMgC2Sn2C2HTe2HMgC2Sn2C2HTe2HMgC2Sn2C2HTe2HMgC2Sn2C2HTe2HMgC2Sn2C2HTe2HMgC2Sn2C2HTe2HMgC2Sn2C2HTe2HMgC2Sn2C2HTe2HMgC2Sn2C2HTe2HMgC2Sn2C2HTe2HMgC2Sn2C2HTe2HMgC2Sn2C2HTe2HMgC2Sn2C2HTe2HMgC2Sn2C2HTe2HMgC2Sn2C2HTe2HMgC2Sn2C2HTe2HMgC2Sn2C2HTe2HMg
_chemical_formula_sum              "C176 H88 N16 Sn48 Te48 Mg24"
_cell_length_a       34.5425
_cell_length_b       33.9849
_cell_length_c       8.95192
_cell_angle_alpha    89.061
_cell_angle_beta     89.8422
_cell_angle_gamma    89.9582

_symmetry_space_group_name_H-M    'P1'
_space_group_IT_number       1

loop_
  _space_group_symop_operation_xyz
  'x, y, z'

loop_
  _atom_site_type_symbol
  _atom_site_label
  _atom_site_symmetry_multiplicity
  _atom_site_fract_x
  _atom_site_fract_y
  _atom_site_fract_z
  _atom_site_occupancy
  C   C1        1.0  0.46671  0.95854  0.50690  1.0000
  C   C2        1.0  0.43050  0.02004  0.48901  1.0000
  C   C3        1.0  0.46436  0.08446  0.51274  1.0000
  C   C4        1.0  0.32188  0.17233  0.55422  1.0000
  H   H1        1.0  0.40316  0.03547  0.47570  1.0000
  H   H2        1.0  0.30426  0.16688  0.65370  1.0000
  N   N1        1.0  0.31183  0.19638  0.44786  1.0000
  C   C5        1.0  0.96527  0.45958  0.49903  1.0000
  C   C6        1.0  0.93116  0.52266  0.48593  1.0000
  C   C7        1.0  0.96729  0.58603  0.51069  1.0000
  C   C8        1.0  0.82816  0.67963  0.51805  1.0000
  H   H3        1.0  0.90431  0.53896  0.47250  1.0000
  H   H4        1.0  0.81210  0.67799  0.62312  1.0000
  N   N2        1.0  0.81491  0.69945  0.40410  1.0000
  C   C9        1.0  0.53691  0.04435  0.50091  1.0000
  C   C10       1.0  0.57333  0.98278  0.49130  1.0000
  C   C11       1.0  0.53899  0.91795  0.51822  1.0000
  C   C12       1.0  0.67454  0.81887  0.53831  1.0000
  H   H5        1.0  0.60106  0.96791  0.48259  1.0000
  H   H6        1.0  0.69173  0.81967  0.64064  1.0000
  N   N3        1.0  0.68328  0.79659  0.42821  1.0000
  C   C13       1.0  0.03820  0.54337  0.50795  1.0000
  C   C14       1.0  0.07261  0.48102  0.49160  1.0000
  C   C15       1.0  0.03671  0.41728  0.51107  1.0000
  C   C16       1.0  0.17448  0.32097  0.52733  1.0000
  H   H7        1.0  0.09958  0.46507  0.47823  1.0000
  H   H8        1.0  0.19197  0.32248  0.62908  1.0000
  N   N4        1.0  0.18438  0.29937  0.41626  1.0000
  C   C17       1.0  0.46505  0.04269  0.50442  1.0000
  C   C18       1.0  0.43137  0.97989  0.48922  1.0000
  C   C19       1.0  0.46756  0.91674  0.51766  1.0000
  C   C20       1.0  0.33100  0.81849  0.53502  1.0000
  H   H9        1.0  0.40467  0.96355  0.47559  1.0000
  H   H10       1.0  0.31064  0.82467  0.62567  1.0000
  N   N5        1.0  0.32451  0.79154  0.43776  1.0000
  C   C21       1.0  0.96633  0.54422  0.50399  1.0000
  C   C22       1.0  0.93070  0.48246  0.48263  1.0000
  C   C23       1.0  0.96521  0.41749  0.50328  1.0000
  C   C24       1.0  0.82604  0.32227  0.53525  1.0000
  H   H11       1.0  0.90344  0.46738  0.46424  1.0000
  H   H12       1.0  0.80699  0.32869  0.62952  1.0000
  N   N6        1.0  0.81738  0.29666  0.43552  1.0000
  C   C25       1.0  0.53878  0.95989  0.50784  1.0000
  C   C26       1.0  0.57238  0.02304  0.48640  1.0000
  C   C27       1.0  0.53539  0.08620  0.50690  1.0000
  C   C28       1.0  0.67411  0.17960  0.53378  1.0000
  H   H13       1.0  0.59906  0.03956  0.47169  1.0000
  H   H14       1.0  0.69287  0.17595  0.63153  1.0000
  N   N7        1.0  0.68346  0.20243  0.42211  1.0000
  C   C29       1.0  0.03742  0.45913  0.50540  1.0000
  C   C30       1.0  0.07307  0.52121  0.49228  1.0000
  C   C31       1.0  0.03847  0.58515  0.51536  1.0000
  C   C32       1.0  0.17344  0.68513  0.52058  1.0000
  H   H15       1.0  0.10018  0.53702  0.47827  1.0000
  H   H16       1.0  0.18547  0.69049  0.63104  1.0000
  N   N8        1.0  0.18966  0.69878  0.40123  1.0000
  C   C33       1.0  0.49941  0.10509  0.51153  1.0000
  C   C34       1.0  0.50234  0.98026  0.50638  1.0000
  H   H17       1.0  0.49874  0.13702  0.52237  1.0000
  C   C35       1.0  0.00303  0.60521  0.51730  1.0000
  C   C36       1.0  0.00149  0.48039  0.50444  1.0000
  H   H18       1.0  0.00318  0.63710  0.52806  1.0000
  C   C37       1.0  0.50352  0.89790  0.52340  1.0000
  C   C38       1.0  0.50147  0.02247  0.50423  1.0000
  H   H19       1.0  0.50390  0.86602  0.53724  1.0000
  C   C39       1.0  0.00091  0.39799  0.50861  1.0000
  C   C40       1.0  0.00198  0.52264  0.50679  1.0000
  H   H20       1.0  0.00101  0.36607  0.51846  1.0000
  C   C41       1.0  0.46280  0.95825  0.00959  1.0000
  C   C42       1.0  0.42693  0.02030  0.99705  1.0000
  C   C43       1.0  0.46179  0.08445  0.01686  1.0000
  C   C44       1.0  0.32720  0.18515  0.02318  1.0000
  H   H21       1.0  0.39961  0.03584  0.98504  1.0000
  H   H22       1.0  0.30917  0.18431  0.12395  1.0000
  N   N9        1.0  0.31988  0.20858  0.91259  1.0000
  C   C45       1.0  0.96216  0.45787  0.00923  1.0000
  C   C46       1.0  0.92752  0.52064  0.00282  1.0000
  C   C47       1.0  0.96324  0.58421  0.02364  1.0000
  C   C48       1.0  0.82617  0.68142  0.02444  1.0000
  H   H23       1.0  0.90043  0.53662  0.99184  1.0000
  H   H24       1.0  0.81089  0.68411  0.13086  1.0000
  N   N10       1.0  0.81338  0.69848  0.90486  1.0000
  C   C49       1.0  0.53376  0.04329  0.01004  1.0000
  C   C50       1.0  0.56960  0.98145  0.99500  1.0000
  C   C51       1.0  0.53506  0.91695  0.01507  1.0000
  C   C52       1.0  0.67354  0.82090  0.02765  1.0000
  H   H25       1.0  0.59695  0.96610  0.98101  1.0000
  H   H26       1.0  0.69236  0.82528  0.12430  1.0000
  N   N11       1.0  0.68145  0.79576  0.92459  1.0000
  C   C53       1.0  0.03466  0.54161  0.01267  1.0000
  C   C54       1.0  0.06935  0.47912  0.99564  1.0000
  C   C55       1.0  0.03349  0.41535  0.01191  1.0000
  C   C56       1.0  0.17251  0.32049  0.02404  1.0000
  H   H27       1.0  0.09625  0.46301  0.98085  1.0000
  H   H28       1.0  0.18615  0.31604  0.13315  1.0000
  N   N12       1.0  0.18778  0.30664  0.90449  1.0000
  C   C57       1.0  0.46172  0.04267  0.01119  1.0000
  C   C58       1.0  0.42754  0.98011  0.99622  1.0000
  C   C59       1.0  0.46359  0.91636  0.01462  1.0000
  C   C60       1.0  0.32538  0.82082  0.04473  1.0000
  H   H29       1.0  0.40060  0.96416  0.98295  1.0000
  H   H30       1.0  0.30783  0.82469  0.14548  1.0000
  N   N13       1.0  0.31608  0.79667  0.94099  1.0000
  C   C61       1.0  0.96263  0.54236  0.01721  1.0000
  C   C62       1.0  0.92732  0.48049  0.99866  1.0000
  C   C63       1.0  0.96216  0.41594  0.00791  1.0000
  C   C64       1.0  0.82500  0.31891  0.03148  1.0000
  H   H31       1.0  0.90015  0.46506  0.98393  1.0000
  H   H32       1.0  0.80551  0.32440  0.12574  1.0000
  N   N14       1.0  0.81811  0.29280  0.93176  1.0000
  C   C65       1.0  0.53484  0.95889  0.00966  1.0000
  C   C66       1.0  0.56904  0.02171  0.99479  1.0000
  C   C67       1.0  0.53300  0.08511  0.01572  1.0000
  C   C68       1.0  0.67051  0.18112  0.01565  1.0000
  H   H33       1.0  0.59580  0.03814  0.98047  1.0000
  H   H34       1.0  0.68633  0.18155  0.12126  1.0000
  N   N15       1.0  0.68363  0.19954  0.89867  1.0000
  C   C69       1.0  0.03416  0.45727  0.01033  1.0000
  C   C70       1.0  0.06950  0.51936  0.99509  1.0000
  C   C71       1.0  0.03448  0.58343  0.01950  1.0000
  C   C72       1.0  0.17104  0.68081  0.02651  1.0000
  H   H35       1.0  0.09660  0.53503  0.97816  1.0000
  H   H36       1.0  0.18754  0.67974  0.13055  1.0000
  N   N16       1.0  0.18277  0.70144  0.91291  1.0000
  C   C73       1.0  0.49724  0.10438  0.01933  1.0000
  C   C74       1.0  0.49855  0.97965  0.01099  1.0000
  H   H37       1.0  0.49677  0.13626  0.02925  1.0000
  C   C75       1.0  0.99905  0.60337  0.02559  1.0000
  C   C76       1.0  0.99826  0.47867  0.01279  1.0000
  H   H38       1.0  0.99958  0.63522  0.03697  1.0000
  C   C77       1.0  0.49946  0.89711  0.01654  1.0000
  C   C78       1.0  0.49796  0.02189  0.01149  1.0000
  H   H39       1.0  0.49990  0.86517  0.02628  1.0000
  C   C79       1.0  0.99772  0.39609  0.00844  1.0000
  C   C80       1.0  0.99848  0.52089  0.01573  1.0000
  H   H40       1.0  0.99753  0.36409  0.01269  1.0000
  C   C81       1.0  0.37018  0.10863  0.64854  1.0000
  C   C82       1.0  0.36078  0.14468  0.58053  1.0000
  C  Sn1       1.0  0.38569  0.16177  0.47480  1.0000
  C  Sn2       1.0  0.42063  0.14235  0.43666  1.0000
  C   C83       1.0  0.42976  0.10628  0.50526  1.0000
  C   C84       1.0  0.40463  0.08944  0.61094  1.0000
  H   H41       1.0  0.35073  0.09559  0.73025  1.0000
  O  Te1       1.0  0.37586  0.19781  0.40796  1.0000
  O  Te2       1.0  0.44604  0.15877  0.33131  1.0000
  H   H42       1.0  0.41190  0.06152  0.66351  1.0000
  Mg  Mg1       1.0  0.41989  0.20838  0.27093  1.0000
  C   C85       1.0  0.75573  0.22500  0.30881  1.0000
  C   C86       1.0  0.72421  0.22276  0.40675  1.0000
  C  Sn3       1.0  0.72079  0.24932  0.52354  1.0000
  C  Sn4       1.0  0.74950  0.27865  0.54231  1.0000
  C   C87       1.0  0.78091  0.28067  0.44367  1.0000
  C   C88       1.0  0.78406  0.25393  0.32721  1.0000
  H   H43       1.0  0.75816  0.20433  0.21865  1.0000
  O  Te3       1.0  0.68912  0.24665  0.62041  1.0000
  O  Te4       1.0  0.74679  0.30558  0.65805  1.0000
  H   H44       1.0  0.80845  0.25569  0.25134  1.0000
  Mg  Mg2       1.0  0.69824  0.29002  0.76117  1.0000
  C   C89       1.0  0.90562  0.66561  0.40367  1.0000
  C   C90       1.0  0.87113  0.65988  0.48299  1.0000
  C  Sn5       1.0  0.86794  0.62915  0.58789  1.0000
  C  Sn6       1.0  0.89993  0.60374  0.61363  1.0000
  C   C91       1.0  0.93432  0.60974  0.53378  1.0000
  C   C92       1.0  0.93719  0.64057  0.42904  1.0000
  H   H45       1.0  0.90786  0.68948  0.32269  1.0000
  O  Te5       1.0  0.83326  0.62383  0.66612  1.0000
  O  Te6       1.0  0.89753  0.57280  0.71786  1.0000
  H   H46       1.0  0.96391  0.64502  0.36772  1.0000
  Mg  Mg3       1.0  0.84413  0.57752  0.79659  1.0000
  C   C93       1.0  0.22607  0.76733  0.50853  1.0000
  C   C94       1.0  0.22111  0.73231  0.43123  1.0000
  C  Sn7       1.0  0.25240  0.71509  0.35770  1.0000
  C  Sn8       1.0  0.28931  0.73333  0.36186  1.0000
  C   C95       1.0  0.29398  0.76835  0.43958  1.0000
  C   C96       1.0  0.26247  0.78534  0.51274  1.0000
  H   H47       1.0  0.20170  0.78047  0.56520  1.0000
  O  Te7       1.0  0.24694  0.68010  0.28094  1.0000
  O  Te8       1.0  0.32108  0.71674  0.28938  1.0000
  H   H48       1.0  0.26632  0.81244  0.57266  1.0000
  Mg  Mg4       1.0  0.29909  0.66885  0.19956  1.0000
  C   C97       1.0  0.61505  0.89887  0.63837  1.0000
  C   C98       1.0  0.58301  0.89752  0.54365  1.0000
  C  Sn9       1.0  0.57888  0.86668  0.44366  1.0000
  C  Sn10      1.0  0.60740  0.83666  0.43871  1.0000
  C   C99       1.0  0.63934  0.83826  0.53401  1.0000
  C   C100      1.0  0.64319  0.86927  0.63360  1.0000
  H   H49       1.0  0.61802  0.92285  0.71548  1.0000
  O  Te9       1.0  0.54669  0.86579  0.34977  1.0000
  O  Te10      1.0  0.60399  0.80549  0.33989  1.0000
  H   H50       1.0  0.66799  0.87029  0.70699  1.0000
  Mg  Mg5       1.0  0.55493  0.81726  0.23430  1.0000
  C   C101      1.0  0.11338  0.39951  0.62935  1.0000
  C   C102      1.0  0.08080  0.39722  0.53770  1.0000
  C  Sn11      1.0  0.07666  0.36597  0.43951  1.0000
  C  Sn12      1.0  0.10572  0.33651  0.43325  1.0000
  C   C103      1.0  0.13819  0.33906  0.52548  1.0000
  C   C104      1.0  0.14205  0.37046  0.62329  1.0000
  H   H51       1.0  0.11635  0.42379  0.70509  1.0000
  O  Te11      1.0  0.04394  0.36414  0.34869  1.0000
  O  Te12      1.0  0.10231  0.30496  0.33618  1.0000
  H   H52       1.0  0.16726  0.37221  0.69430  1.0000
  Mg  Mg6       1.0  0.05241  0.31541  0.23467  1.0000
  C   C105      1.0  0.37427  0.88328  0.64095  1.0000
  C   C106      1.0  0.36522  0.85165  0.54958  1.0000
  C  Sn13      1.0  0.39183  0.83874  0.44322  1.0000
  C  Sn14      1.0  0.42815  0.85790  0.42836  1.0000
  C   C107      1.0  0.43694  0.88949  0.52039  1.0000
  C   C108      1.0  0.41009  0.90218  0.62641  1.0000
  H   H53       1.0  0.35351  0.89309  0.72305  1.0000
  O  Te13      1.0  0.38231  0.80711  0.35279  1.0000
  O  Te14      1.0  0.45528  0.84559  0.32302  1.0000
  H   H54       1.0  0.41712  0.92666  0.69721  1.0000
  Mg  Mg7       1.0  0.42890  0.80115  0.22562  1.0000
  C   C109      1.0  0.75914  0.77722  0.53680  1.0000
  C   C110      1.0  0.72573  0.77741  0.44907  1.0000
  C  Sn15      1.0  0.71922  0.74734  0.34760  1.0000
  C  Sn16      1.0  0.74670  0.71655  0.33398  1.0000
  C   C111      1.0  0.78001  0.71661  0.42233  1.0000
  C   C112      1.0  0.78625  0.74686  0.52348  1.0000
  H   H55       1.0  0.76396  0.80061  0.61512  1.0000
  O  Te15      1.0  0.68570  0.74798  0.26077  1.0000
  O  Te16      1.0  0.74090  0.68612  0.23349  1.0000
  H   H56       1.0  0.81210  0.74669  0.59146  1.0000
  Mg  Mg8       1.0  0.69076  0.69998  0.13969  1.0000
  C   C113      1.0  0.87061  0.38845  0.62408  1.0000
  C   C114      1.0  0.86125  0.35448  0.54612  1.0000
  C  Sn17      1.0  0.88818  0.33767  0.44942  1.0000
  C  Sn18      1.0  0.92515  0.35527  0.43068  1.0000
  C   C115      1.0  0.93425  0.38923  0.50927  1.0000
  C   C116      1.0  0.90708  0.40581  0.60571  1.0000
  H   H57       1.0  0.84960  0.40127  0.69876  1.0000
  O  Te17      1.0  0.87835  0.30373  0.37234  1.0000
  O  Te18      1.0  0.95262  0.33907  0.33479  1.0000
  H   H58       1.0  0.91434  0.43210  0.66613  1.0000
  Mg  Mg9       1.0  0.92560  0.29267  0.25435  1.0000
  C   C117      1.0  0.22230  0.23694  0.56839  1.0000
  C   C118      1.0  0.21678  0.26787  0.46587  1.0000
  C  Sn19      1.0  0.24250  0.27335  0.34661  1.0000
  C  Sn20      1.0  0.27430  0.24732  0.32995  1.0000
  C   C119      1.0  0.27955  0.21645  0.43306  1.0000
  C   C120      1.0  0.25365  0.21124  0.55201  1.0000
  H   H59       1.0  0.20225  0.23289  0.66038  1.0000
  O  Te19      1.0  0.23657  0.30442  0.24523  1.0000
  O  Te20      1.0  0.30043  0.25212  0.21176  1.0000
  H   H60       1.0  0.25792  0.18728  0.63131  1.0000
  Mg  Mg10      1.0  0.28009  0.29883  0.10261  1.0000
  C   C121      1.0  0.59813  0.16635  0.41799  1.0000
  C   C122      1.0  0.62959  0.16237  0.51488  1.0000
  C  Sn21      1.0  0.63183  0.13021  0.61372  1.0000
  C  Sn22      1.0  0.60198  0.10155  0.61532  1.0000
  C   C123      1.0  0.57064  0.10579  0.51787  1.0000
  C   C124      1.0  0.56868  0.13809  0.41945  1.0000
  H   H61       1.0  0.59662  0.19133  0.34177  1.0000
  O  Te21      1.0  0.66347  0.12669  0.70981  1.0000
  O  Te22      1.0  0.60350  0.06911  0.71294  1.0000
  H   H62       1.0  0.54433  0.14115  0.34438  1.0000
  Mg  Mg11      1.0  0.65249  0.07729  0.82247  1.0000
  C   C125      1.0  0.08083  0.65163  0.40509  1.0000
  C   C126      1.0  0.07446  0.61700  0.48783  1.0000
  C  Sn23      1.0  0.10112  0.60468  0.59599  1.0000
  C  Sn24      1.0  0.13475  0.62752  0.62157  1.0000
  C   C127      1.0  0.14085  0.66214  0.53828  1.0000
  C   C128      1.0  0.11398  0.67419  0.43029  1.0000
  H   H63       1.0  0.06004  0.66097  0.32159  1.0000
  O  Te23      1.0  0.09432  0.57000  0.67761  1.0000
  O  Te24      1.0  0.16186  0.61590  0.72903  1.0000
  H   H64       1.0  0.11891  0.70101  0.36632  1.0000
  Mg  Mg12      1.0  0.13974  0.56640  0.81171  1.0000
  C   C129      1.0  0.40285  0.16568  0.91374  1.0000
  C   C130      1.0  0.36825  0.16158  0.99370  1.0000
  C  Sn25      1.0  0.36418  0.13479  0.09606  1.0000
  C  Sn26      1.0  0.39466  0.10733  0.11856  1.0000
  C   C131      1.0  0.42917  0.11171  0.03808  1.0000
  C   C132      1.0  0.43294  0.13862  0.93591  1.0000
  H   H65       1.0  0.40633  0.18985  0.83474  1.0000
  O  Te25      1.0  0.32941  0.13111  0.17498  1.0000
  O  Te26      1.0  0.39065  0.07598  0.22021  1.0000
  H   H66       1.0  0.45974  0.14181  0.87408  1.0000
  Mg  Mg13      1.0  0.33780  0.08345  0.30111  1.0000
  C   C133      1.0  0.72091  0.27203  0.00289  1.0000
  C   C134      1.0  0.71527  0.23295  0.92395  1.0000
  C  Sn27      1.0  0.74660  0.21593  0.84995  1.0000
  C  Sn28      1.0  0.78351  0.23413  0.85532  1.0000
  C   C135      1.0  0.78815  0.26889  0.93468  1.0000
  C   C136      1.0  0.75731  0.28999  0.00828  1.0000
  H   H67       1.0  0.69651  0.28501  0.05991  1.0000
  O  Te27      1.0  0.74116  0.18119  0.77156  1.0000
  O  Te28      1.0  0.81532  0.21774  0.78241  1.0000
  H   H68       1.0  0.76115  0.31689  0.06947  1.0000
  Mg  Mg14      1.0  0.79336  0.17016  0.69019  1.0000
  C   C137      1.0  0.90354  0.66558  0.92160  1.0000
  C   C138      1.0  0.86827  0.65988  0.99566  1.0000
  C  Sn29      1.0  0.86425  0.63254  0.09559  1.0000
  C  Sn30      1.0  0.89546  0.60616  0.12165  1.0000
  C   C139      1.0  0.93063  0.61214  0.04708  1.0000
  C   C140      1.0  0.93434  0.63959  0.94729  1.0000
  H   H69       1.0  0.90697  0.69017  0.84445  1.0000
  O  Te29      1.0  0.82882  0.62727  0.16860  1.0000
  O  Te30      1.0  0.89152  0.57430  0.22099  1.0000
  H   H70       1.0  0.96166  0.64401  0.89003  1.0000
  Mg  Mg15      1.0  0.83759  0.57948  0.29360  1.0000
  C   C141      1.0  0.25703  0.72290  0.81463  1.0000
  C   C142      1.0  0.22424  0.72123  0.90627  1.0000
  C  Sn31      1.0  0.22002  0.75272  0.02019  1.0000
  C  Sn32      1.0  0.24850  0.78210  0.04249  1.0000
  C   C143      1.0  0.28048  0.77922  0.95015  1.0000
  C   C144      1.0  0.28513  0.75187  0.83651  1.0000
  H   H71       1.0  0.26062  0.70175  0.72666  1.0000
  O  Te31      1.0  0.18709  0.75062  0.11076  1.0000
  O  Te32      1.0  0.24430  0.80964  0.15548  1.0000
  H   H72       1.0  0.31051  0.75319  0.76552  1.0000
  Mg  Mg16      1.0  0.19440  0.79471  0.24987  1.0000
  C   C145      1.0  0.61118  0.89795  0.13589  1.0000
  C   C146      1.0  0.57962  0.89712  0.03865  1.0000
  C  Sn33      1.0  0.57591  0.86316  0.93297  1.0000
  C  Sn34      1.0  0.60508  0.83386  0.92478  1.0000
  C   C147      1.0  0.63723  0.83926  0.02263  1.0000
  C   C148      1.0  0.63996  0.86905  0.12792  1.0000
  H   H73       1.0  0.61328  0.92099  0.21741  1.0000
  O  Te33      1.0  0.54419  0.86277  0.83663  1.0000
  O  Te34      1.0  0.60279  0.80390  0.82026  1.0000
  H   H74       1.0  0.66438  0.86968  0.20326  1.0000
  Mg  Mg17      1.0  0.55400  0.81594  0.71324  1.0000
  C   C149      1.0  0.12609  0.38218  0.14076  1.0000
  C   C150      1.0  0.13451  0.34867  0.05828  1.0000
  C  Sn35      1.0  0.10887  0.33245  0.94503  1.0000
  C  Sn36      1.0  0.07490  0.35458  0.91399  1.0000
  C   C151      1.0  0.06675  0.38809  0.99707  1.0000
  C   C152      1.0  0.09261  0.40404  0.11018  1.0000
  H   H75       1.0  0.14556  0.39120  0.22822  1.0000
  O  Te35      1.0  0.11771  0.29888  0.86374  1.0000
  O  Te36      1.0  0.04949  0.34336  0.80138  1.0000
  H   H76       1.0  0.08609  0.43000  0.17395  1.0000
  Mg  Mg18      1.0  0.07409  0.29544  0.72140  1.0000
  C   C153      1.0  0.41914  0.84956  0.91937  1.0000
  C   C154      1.0  0.42730  0.88441  0.99372  1.0000
  C  Sn37      1.0  0.40229  0.90300  0.10074  1.0000
  C  Sn38      1.0  0.36779  0.88191  0.13371  1.0000
  C   C155      1.0  0.35991  0.84705  0.05878  1.0000
  C   C156      1.0  0.38513  0.82873  0.95187  1.0000
  H   H77       1.0  0.43921  0.83871  0.83670  1.0000
  O  Te37      1.0  0.41087  0.93787  0.17394  1.0000
  O  Te38      1.0  0.34159  0.89549  0.24020  1.0000
  H   H78       1.0  0.37882  0.80173  0.89438  1.0000
  Mg  Mg19      1.0  0.36612  0.94448  0.31009  1.0000
  C   C157      1.0  0.77694  0.76609  0.01901  1.0000
  C   C158      1.0  0.78047  0.72611  0.94517  1.0000
  C  Sn39      1.0  0.75092  0.71232  0.85357  1.0000
  C  Sn40      1.0  0.71652  0.73473  0.83575  1.0000
  C   C159      1.0  0.71256  0.77038  0.91002  1.0000
  C   C160      1.0  0.74302  0.78821  0.00145  1.0000
  H   H79       1.0  0.79996  0.77656  0.08968  1.0000
  O  Te39      1.0  0.75563  0.67662  0.78066  1.0000
  O  Te40      1.0  0.68653  0.72165  0.74483  1.0000
  H   H80       1.0  0.73974  0.81584  0.05853  1.0000
  Mg  Mg20      1.0  0.70658  0.67116  0.66883  1.0000
  C   C161      1.0  0.88552  0.39874  0.12237  1.0000
  C   C162      1.0  0.91954  0.39387  0.03982  1.0000
  C  Sn41      1.0  0.92220  0.35862  0.93974  1.0000
  C  Sn42      1.0  0.89088  0.33211  0.92218  1.0000
  C   C163      1.0  0.85768  0.34157  0.00520  1.0000
  C   C164      1.0  0.85461  0.37262  0.10507  1.0000
  H   H81       1.0  0.88314  0.42278  0.19958  1.0000
  O  Te41      1.0  0.95640  0.35417  0.85820  1.0000
  O  Te42      1.0  0.89347  0.30095  0.82289  1.0000
  H   H82       1.0  0.82826  0.37640  0.16889  1.0000
  Mg  Mg21      1.0  0.94603  0.30713  0.73688  1.0000
  C   C165      1.0  0.28487  0.28087  0.84852  1.0000
  C   C166      1.0  0.28818  0.24238  0.90441  1.0000
  C  Sn43      1.0  0.25570  0.22271  0.96125  1.0000
  C  Sn44      1.0  0.21925  0.24199  0.96196  1.0000
  C   C167      1.0  0.21624  0.28049  0.90569  1.0000
  C   C168      1.0  0.24894  0.29991  0.84913  1.0000
  H   H83       1.0  0.31016  0.29589  0.80468  1.0000
  O  Te43      1.0  0.26023  0.18858  0.01671  1.0000
  O  Te44      1.0  0.18703  0.22733  0.01806  1.0000
  H   H84       1.0  0.24636  0.32970  0.80577  1.0000
  Mg  Mg22      1.0  0.20693  0.17503  0.08139  1.0000
  C   C169      1.0  0.62572  0.11850  0.13659  1.0000
  C   C170      1.0  0.63547  0.14949  0.03910  1.0000
  C  Sn45      1.0  0.60869  0.15778  0.92922  1.0000
  C  Sn46      1.0  0.57222  0.13895  0.91700  1.0000
  C   C171      1.0  0.56344  0.11230  0.01514  1.0000
  C   C172      1.0  0.58975  0.09993  0.12466  1.0000
  H   H85       1.0  0.64606  0.10894  0.22139  1.0000
  O  Te45      1.0  0.61890  0.18877  0.83269  1.0000
  O  Te46      1.0  0.54562  0.15095  0.80823  1.0000
  H   H86       1.0  0.58219  0.07595  0.20018  1.0000
  Mg  Mg23      1.0  0.57286  0.19452  0.70272  1.0000
  C   C173      1.0  0.09479  0.66362  0.91166  1.0000
  C   C174      1.0  0.12809  0.66592  0.00361  1.0000
  C  Sn47      1.0  0.13253  0.63470  0.10564  1.0000
  C  Sn48      1.0  0.10376  0.60499  0.11550  1.0000
  C   C175      1.0  0.07127  0.60726  0.02294  1.0000
  C   C176      1.0  0.06641  0.63431  0.92128  1.0000
  H   H87       1.0  0.09158  0.68788  0.83294  1.0000
  O  Te47      1.0  0.16527  0.63315  0.19671  1.0000
  O  Te48      1.0  0.10748  0.57345  0.21645  1.0000
  H   H88       1.0  0.04118  0.63585  0.85003  1.0000
  Mg  Mg24      1.0  0.15727  0.58433  0.31672  1.0000
