data_image0
_chemical_formula_structural       N8C16H8C16H8N4C16H8C8O8N4Cu2N8C16H8C16H8N4C16H8C8O8N4Cu2SnCSn2CSnTe4Mg2SnCSn2CSnTe4Mg2SnCSn2CSnTe4Mg2SnCSn2CSnTe4Mg2SnCSn2CSnTe4Mg2SnCSn2CSnTe4Mg2SnCSn2CSnTe4Mg2SnCSn2CSnTe4Mg2SnCSn2CSnTe4Mg2SnCSn2CSnTe4Mg2SnCSn2CSnTe4Mg2SnCSn2CSnTe4Mg2SnCSn2CSnTe4Mg2SnCSn2CSnTe4Mg2SnCSn2CSnTe4Mg2SnCSn2CSnTe4Mg2
_chemical_formula_sum              "N32 C144 H48 O16 Cu4 Sn64 Te64 Mg32"
_cell_length_a       23.4832
_cell_length_b       36.0902
_cell_length_c       9.80145
_cell_angle_alpha    77.3927
_cell_angle_beta     99.168
_cell_angle_gamma    90.4119

_symmetry_space_group_name_H-M    'P1'
_space_group_IT_number       1

loop_
  _space_group_symop_operation_xyz
  'x, y, z'

loop_
  _atom_site_type_symbol
  _atom_site_label
  _atom_site_symmetry_multiplicity
  _atom_site_fract_x
  _atom_site_fract_y
  _atom_site_fract_z
  _atom_site_occupancy
  N   N1        1.0  0.22998  0.68803  0.22841  1.0000
  N   N2        1.0  0.73787  0.18171  0.28989  1.0000
  N   N3        1.0  0.76229  0.31270  0.23962  1.0000
  N   N4        1.0  0.26448  0.81362  0.26729  1.0000
  N   N5        1.0  0.76276  0.68589  0.21783  1.0000
  N   N6        1.0  0.26927  0.18696  0.23194  1.0000
  N   N7        1.0  0.23290  0.31277  0.25767  1.0000
  N   N8        1.0  0.74292  0.81059  0.27802  1.0000
  C   C1        1.0  0.24189  0.72467  0.22155  1.0000
  C   C2        1.0  0.74787  0.21786  0.29588  1.0000
  C   C3        1.0  0.75588  0.27508  0.27481  1.0000
  C   C4        1.0  0.25269  0.77962  0.23848  1.0000
  C   C5        1.0  0.75571  0.72015  0.24403  1.0000
  C   C6        1.0  0.25812  0.22103  0.25597  1.0000
  C   C7        1.0  0.24587  0.27604  0.26864  1.0000
  C   C8        1.0  0.75186  0.77530  0.26141  1.0000
  C   C9        1.0  0.20142  0.75669  0.21163  1.0000
  C   C10       1.0  0.70959  0.24866  0.31104  1.0000
  C   C11       1.0  0.79488  0.24420  0.26415  1.0000
  C   C12       1.0  0.29322  0.74812  0.24665  1.0000
  C   C13       1.0  0.79191  0.75302  0.20505  1.0000
  C   C14       1.0  0.29723  0.25277  0.26495  1.0000
  C   C15       1.0  0.20679  0.24402  0.26201  1.0000
  C   C16       1.0  0.71604  0.74223  0.30097  1.0000
  H   H1        1.0  0.18742  0.68153  0.22425  1.0000
  H   H2        1.0  0.69627  0.17330  0.29061  1.0000
  H   H3        1.0  0.79942  0.32055  0.20094  1.0000
  H   H4        1.0  0.30690  0.81787  0.30119  1.0000
  H   H5        1.0  0.79620  0.68420  0.16430  1.0000
  H   H6        1.0  0.30986  0.18271  0.21232  1.0000
  H   H7        1.0  0.18990  0.32014  0.23967  1.0000
  H   H8        1.0  0.70850  0.81352  0.32720  1.0000
  C   C17       1.0  0.95385  0.92242  0.25559  1.0000
  C   C18       1.0  0.45113  0.42213  0.23032  1.0000
  C   C19       1.0  0.05016  0.08006  0.22098  1.0000
  C   C20       1.0  0.54667  0.57800  0.25404  1.0000
  C   C21       1.0  0.04773  0.92196  0.25997  1.0000
  C   C22       1.0  0.54467  0.42240  0.22454  1.0000
  C   C23       1.0  0.95634  0.08039  0.22566  1.0000
  C   C24       1.0  0.45302  0.57841  0.26413  1.0000
  C   C25       1.0  0.97400  0.88341  0.30406  1.0000
  C   C26       1.0  0.46565  0.38753  0.19049  1.0000
  C   C27       1.0  0.03093  0.11920  0.19263  1.0000
  C   C28       1.0  0.52996  0.61648  0.25176  1.0000
  C   C29       1.0  0.03214  0.88307  0.30479  1.0000
  C   C30       1.0  0.52347  0.38779  0.18646  1.0000
  C   C31       1.0  0.97333  0.11938  0.19854  1.0000
  C   C32       1.0  0.47342  0.61620  0.26749  1.0000
  H   H9        1.0  0.94742  0.85954  0.33616  1.0000
  H   H10       1.0  0.43583  0.36597  0.16658  1.0000
  H   H11       1.0  0.05747  0.14352  0.16775  1.0000
  H   H12       1.0  0.55743  0.64074  0.24135  1.0000
  H   H13       1.0  0.06186  0.85883  0.33706  1.0000
  H   H14       1.0  0.54913  0.36662  0.15854  1.0000
  H   H15       1.0  0.94467  0.14381  0.18160  1.0000
  H   H16       1.0  0.44908  0.63989  0.28210  1.0000
  N   N9        1.0  0.41400  0.49934  0.26220  1.0000
  N   N10       1.0  0.91476  0.00244  0.22065  1.0000
  N   N11       1.0  0.58538  0.49822  0.26045  1.0000
  N   N12       1.0  0.08845  0.00088  0.23666  1.0000
  C   C33       1.0  0.37928  0.46804  0.26448  1.0000
  C   C34       1.0  0.87828  0.97260  0.20820  1.0000
  C   C35       1.0  0.62129  0.52763  0.28043  1.0000
  C   C36       1.0  0.12527  0.03063  0.24350  1.0000
  C   C37       1.0  0.62127  0.46699  0.27181  1.0000
  C   C38       1.0  0.12286  0.96999  0.23664  1.0000
  C   C39       1.0  0.37791  0.53006  0.25808  1.0000
  C   C40       1.0  0.87993  0.03304  0.22253  1.0000
  C   C41       1.0  0.32085  0.47909  0.26783  1.0000
  C   C42       1.0  0.81936  0.98544  0.19287  1.0000
  C   C43       1.0  0.68051  0.51415  0.31628  1.0000
  C   C44       1.0  0.18398  0.01765  0.25269  1.0000
  C   C45       1.0  0.68049  0.47659  0.31071  1.0000
  C   C46       1.0  0.18228  0.98064  0.24133  1.0000
  C   C47       1.0  0.31940  0.51744  0.25535  1.0000
  C   C48       1.0  0.82044  0.02211  0.20860  1.0000
  H   H17       1.0  0.28499  0.46027  0.27427  1.0000
  H   H18       1.0  0.78236  0.96815  0.17481  1.0000
  H   H19       1.0  0.71664  0.53118  0.34582  1.0000
  H   H20       1.0  0.22172  0.03449  0.26646  1.0000
  H   H21       1.0  0.71703  0.45694  0.33184  1.0000
  H   H22       1.0  0.21795  0.96214  0.23867  1.0000
  H   H23       1.0  0.28148  0.53533  0.24275  1.0000
  H   H24       1.0  0.78389  0.03973  0.21101  1.0000
  C   C49       1.0  0.89567  0.93437  0.22891  1.0000
  C   C50       1.0  0.39564  0.43172  0.25077  1.0000
  C   C51       1.0  0.10811  0.06830  0.23513  1.0000
  C   C52       1.0  0.60400  0.56563  0.26492  1.0000
  C   C53       1.0  0.10415  0.93282  0.24602  1.0000
  C   C54       1.0  0.60308  0.43163  0.24567  1.0000
  C   C55       1.0  0.89903  0.06956  0.23210  1.0000
  C   C56       1.0  0.39480  0.56773  0.25936  1.0000
  O   O1        1.0  0.14855  0.76027  0.19588  1.0000
  O   O2        1.0  0.66010  0.25063  0.33629  1.0000
  O   O3        1.0  0.84334  0.24247  0.23389  1.0000
  O   O4        1.0  0.34627  0.74466  0.27259  1.0000
  O   O5        1.0  0.83518  0.75722  0.14763  1.0000
  O   O6        1.0  0.34923  0.25703  0.26403  1.0000
  O   O7        1.0  0.15452  0.24024  0.25688  1.0000
  O   O8        1.0  0.67193  0.73745  0.35592  1.0000
  N   N13       1.0  0.99999  0.94584  0.23709  1.0000
  N   N14       1.0  0.49934  0.44382  0.24542  1.0000
  N   N15       1.0  0.00348  0.05670  0.23466  1.0000
  N   N16       1.0  0.49908  0.55519  0.25916  1.0000
  Cu  Cu1       1.0  0.00148  0.00159  0.23127  1.0000
  Cu  Cu2       1.0  0.49910  0.49936  0.25667  1.0000
  N   N17       1.0  0.23772  0.69112  0.70001  1.0000
  N   N18       1.0  0.73011  0.18330  0.76532  1.0000
  N   N19       1.0  0.76283  0.31186  0.75829  1.0000
  N   N20       1.0  0.26176  0.81026  0.82138  1.0000
  N   N21       1.0  0.76997  0.68495  0.75118  1.0000
  N   N22       1.0  0.26152  0.18893  0.71093  1.0000
  N   N23       1.0  0.22650  0.31218  0.77023  1.0000
  N   N24       1.0  0.73576  0.81390  0.74169  1.0000
  C   C57       1.0  0.24619  0.72380  0.74302  1.0000
  C   C58       1.0  0.74310  0.21836  0.78330  1.0000
  C   C59       1.0  0.75389  0.27458  0.78035  1.0000
  C   C60       1.0  0.25101  0.77692  0.78588  1.0000
  C   C61       1.0  0.75798  0.72230  0.73157  1.0000
  C   C62       1.0  0.25031  0.22335  0.73204  1.0000
  C   C63       1.0  0.23873  0.27769  0.75301  1.0000
  C   C64       1.0  0.74657  0.77871  0.72751  1.0000
  C   C65       1.0  0.20500  0.75647  0.71192  1.0000
  C   C66       1.0  0.70435  0.24924  0.79225  1.0000
  C   C67       1.0  0.79340  0.24331  0.77533  1.0000
  C   C68       1.0  0.29006  0.74361  0.82388  1.0000
  C   C69       1.0  0.79784  0.75441  0.73360  1.0000
  C   C70       1.0  0.28653  0.25701  0.71621  1.0000
  C   C71       1.0  0.20206  0.24422  0.76579  1.0000
  C   C72       1.0  0.70693  0.74709  0.72292  1.0000
  H   H25       1.0  0.19979  0.69035  0.63325  1.0000
  H   H26       1.0  0.68716  0.17766  0.74698  1.0000
  H   H27       1.0  0.80182  0.31969  0.73002  1.0000
  H   H28       1.0  0.29982  0.81077  0.88799  1.0000
  H   H29       1.0  0.81286  0.67766  0.77007  1.0000
  H   H30       1.0  0.29794  0.18649  0.66826  1.0000
  H   H31       1.0  0.18873  0.31505  0.80707  1.0000
  H   H32       1.0  0.69463  0.81948  0.75511  1.0000
  C   C73       1.0  0.95448  0.92199  0.75166  1.0000
  C   C74       1.0  0.44687  0.42053  0.72999  1.0000
  C   C75       1.0  0.04485  0.08040  0.73457  1.0000
  C   C76       1.0  0.54716  0.57607  0.76232  1.0000
  C   C77       1.0  0.04815  0.92252  0.74644  1.0000
  C   C78       1.0  0.54106  0.42013  0.73146  1.0000
  C   C79       1.0  0.95124  0.08009  0.74248  1.0000
  C   C80       1.0  0.45193  0.57678  0.75760  1.0000
  C   C81       1.0  0.97405  0.88301  0.77352  1.0000
  C   C82       1.0  0.46309  0.38313  0.71635  1.0000
  C   C83       1.0  0.02492  0.11948  0.70450  1.0000
  C   C84       1.0  0.52999  0.61354  0.77101  1.0000
  C   C85       1.0  0.03182  0.88341  0.77033  1.0000
  C   C86       1.0  0.52121  0.38299  0.71611  1.0000
  C   C87       1.0  0.96720  0.11927  0.70992  1.0000
  C   C88       1.0  0.47159  0.61469  0.75925  1.0000
  H   H33       1.0  0.94775  0.85834  0.79344  1.0000
  H   H34       1.0  0.43390  0.35996  0.70921  1.0000
  H   H35       1.0  0.05120  0.14400  0.67985  1.0000
  H   H36       1.0  0.55831  0.63658  0.78385  1.0000
  H   H37       1.0  0.06076  0.85919  0.78654  1.0000
  H   H38       1.0  0.54835  0.35991  0.70623  1.0000
  H   H39       1.0  0.93788  0.14343  0.69231  1.0000
  H   H40       1.0  0.44543  0.63970  0.75142  1.0000
  N   N25       1.0  0.41049  0.49831  0.75300  1.0000
  N   N26       1.0  0.91417  0.00046  0.75645  1.0000
  N   N27       1.0  0.58348  0.49859  0.74396  1.0000
  N   N28       1.0  0.08592  0.00154  0.74230  1.0000
  C   C89       1.0  0.37534  0.46713  0.75836  1.0000
  C   C90       1.0  0.87914  0.96952  0.75511  1.0000
  C   C91       1.0  0.61979  0.52922  0.74097  1.0000
  C   C92       1.0  0.12141  0.03199  0.74897  1.0000
  C   C93       1.0  0.61762  0.46771  0.74018  1.0000
  C   C94       1.0  0.12128  0.97180  0.73521  1.0000
  C   C95       1.0  0.37671  0.52793  0.76813  1.0000
  C   C96       1.0  0.87922  0.03003  0.76872  1.0000
  C   C97       1.0  0.31863  0.47731  0.77927  1.0000
  C   C98       1.0  0.82131  0.98009  0.76719  1.0000
  C   C99       1.0  0.67712  0.51729  0.72974  1.0000
  C   C100      1.0  0.18053  0.02057  0.75212  1.0000
  C   C101      1.0  0.67629  0.47919  0.73436  1.0000
  C   C102      1.0  0.17987  0.98392  0.73687  1.0000
  C   C103      1.0  0.31976  0.51459  0.78800  1.0000
  C   C104      1.0  0.82182  0.01689  0.78118  1.0000
  H   H41       1.0  0.28283  0.45827  0.78753  1.0000
  H   H42       1.0  0.78471  0.96194  0.76557  1.0000
  H   H43       1.0  0.71340  0.53564  0.71822  1.0000
  H   H44       1.0  0.21764  0.03822  0.76283  1.0000
  H   H45       1.0  0.71184  0.46049  0.73209  1.0000
  H   H46       1.0  0.21579  0.96670  0.72721  1.0000
  H   H47       1.0  0.28526  0.53122  0.80855  1.0000
  H   H48       1.0  0.78674  0.03364  0.79895  1.0000
  C   C105      1.0  0.89679  0.93273  0.74956  1.0000
  C   C106      1.0  0.39091  0.43097  0.74308  1.0000
  C   C107      1.0  0.10292  0.06925  0.74363  1.0000
  C   C108      1.0  0.60411  0.56610  0.75190  1.0000
  C   C109      1.0  0.10460  0.93442  0.73738  1.0000
  C   C110      1.0  0.59900  0.43069  0.73760  1.0000
  C   C111      1.0  0.89527  0.06796  0.75957  1.0000
  C   C112      1.0  0.39431  0.56560  0.76363  1.0000
  O   O9        1.0  0.15518  0.76170  0.65018  1.0000
  O   O10       1.0  0.65271  0.25146  0.80129  1.0000
  O   O11       1.0  0.84426  0.24091  0.76076  1.0000
  O   O12       1.0  0.34003  0.73787  0.89004  1.0000
  O   O13       1.0  0.85016  0.75852  0.74087  1.0000
  O   O14       1.0  0.33445  0.26359  0.68213  1.0000
  O   O15       1.0  0.15273  0.23864  0.79147  1.0000
  O   O16       1.0  0.65443  0.74408  0.72010  1.0000
  N   N29       1.0  0.00056  0.94582  0.73883  1.0000
  N   N30       1.0  0.49488  0.44306  0.73699  1.0000
  N   N31       1.0  0.99883  0.05668  0.75127  1.0000
  N   N32       1.0  0.49891  0.55354  0.75737  1.0000
  Cu  Cu3       1.0  0.99977  0.00123  0.74660  1.0000
  Cu  Cu4       1.0  0.49666  0.49869  0.74714  1.0000
  C  Sn1       1.0  0.33186  0.34305  0.38199  1.0000
  C   C113      1.0  0.27767  0.34331  0.29858  1.0000
  C  Sn2       1.0  0.26145  0.37238  0.17871  1.0000
  C  Sn3       1.0  0.30021  0.40179  0.14135  1.0000
  C   C114      1.0  0.35436  0.40151  0.22472  1.0000
  C  Sn4       1.0  0.37062  0.37245  0.34464  1.0000
  O  Te1       1.0  0.34716  0.31370  0.50137  1.0000
  O  Te2       1.0  0.20703  0.37204  0.09699  1.0000
  O  Te3       1.0  0.28485  0.43114  0.02187  1.0000
  O  Te4       1.0  0.42500  0.37278  0.42631  1.0000
  Mg  Mg1       1.0  0.27188  0.35924  0.94418  1.0000
  Mg  Mg2       1.0  0.42606  0.32662  0.57909  1.0000
  C  Sn5       1.0  0.84104  0.87256  0.12281  1.0000
  C   C115      1.0  0.84136  0.90383  0.18554  1.0000
  C  Sn6       1.0  0.81235  0.90284  0.30007  1.0000
  C  Sn7       1.0  0.78242  0.86990  0.35307  1.0000
  C   C116      1.0  0.78213  0.83865  0.29037  1.0000
  C  Sn8       1.0  0.81112  0.83962  0.17581  1.0000
  O  Te5       1.0  0.87034  0.87417  0.00843  1.0000
  O  Te6       1.0  0.81326  0.93446  0.36100  1.0000
  O  Te7       1.0  0.75311  0.86831  0.46754  1.0000
  O  Te8       1.0  0.81022  0.80802  0.11491  1.0000
  Mg  Mg3       1.0  0.76694  0.91855  0.51475  1.0000
  Mg  Mg4       1.0  0.92240  0.76492  0.96120  1.0000
  C  Sn9       1.0  0.70702  0.62817  0.11959  1.0000
  C   C117      1.0  0.71690  0.65507  0.20328  1.0000
  C  Sn10      1.0  0.69658  0.64958  0.33244  1.0000
  C  Sn11      1.0  0.66577  0.61650  0.37898  1.0000
  C   C118      1.0  0.65592  0.58962  0.29532  1.0000
  C  Sn12      1.0  0.67621  0.59509  0.16612  1.0000
  O  Te9       1.0  0.79358  0.57527  0.99084  1.0000
  O  Te10      1.0  0.70698  0.67688  0.41424  1.0000
  O  Te11      1.0  0.64506  0.61045  0.50784  1.0000
  O  Te12      1.0  0.66584  0.56781  0.08436  1.0000
  Mg  Mg5       1.0  0.67012  0.65581  0.58170  1.0000
  Mg  Mg6       1.0  0.76855  0.52987  0.91692  1.0000
  C  Sn13      1.0  0.14440  0.13800  0.29578  1.0000
  C   C119      1.0  0.14355  0.10789  0.22691  1.0000
  C  Sn14      1.0  0.19064  0.10046  0.16503  1.0000
  C  Sn15      1.0  0.23961  0.12361  0.17220  1.0000
  C   C120      1.0  0.24045  0.15370  0.24105  1.0000
  C  Sn16      1.0  0.19337  0.16115  0.30295  1.0000
  O  Te13      1.0  0.09684  0.14490  0.35690  1.0000
  O  Te14      1.0  0.18878  0.07020  0.09672  1.0000
  O  Te15      1.0  0.28719  0.11669  0.11100  1.0000
  O  Te16      1.0  0.19522  0.19139  0.37124  1.0000
  Mg  Mg7       1.0  0.26419  0.07215  0.02977  1.0000
  Mg  Mg8       1.0  0.11985  0.18945  0.43829  1.0000
  C  Sn17      1.0  0.66459  0.36191  0.37554  1.0000
  C   C121      1.0  0.65767  0.39808  0.28647  1.0000
  C  Sn18      1.0  0.68117  0.40593  0.16133  1.0000
  C  Sn19      1.0  0.71222  0.37701  0.12438  1.0000
  C   C122      1.0  0.71912  0.34087  0.21341  1.0000
  C  Sn20      1.0  0.69564  0.33300  0.33860  1.0000
  O  Te17      1.0  0.64072  0.35470  0.50013  1.0000
  O  Te18      1.0  0.67370  0.44231  0.07400  1.0000
  O  Te19      1.0  0.80194  0.32529  0.99968  1.0000
  O  Te20      1.0  0.70309  0.29664  0.42588  1.0000
  Mg  Mg9       1.0  0.78012  0.37927  0.91541  1.0000
  Mg  Mg10      1.0  0.66251  0.30067  0.58446  1.0000
  C  Sn21      1.0  0.13294  0.86454  0.17107  1.0000
  C   C123      1.0  0.13592  0.89060  0.25835  1.0000
  C  Sn22      1.0  0.18736  0.89470  0.34674  1.0000
  C  Sn23      1.0  0.23687  0.87228  0.34787  1.0000
  C   C124      1.0  0.23387  0.84624  0.26061  1.0000
  C  Sn24      1.0  0.18245  0.84212  0.17220  1.0000
  O  Te21      1.0  0.08107  0.86092  0.08355  1.0000
  O  Te22      1.0  0.18928  0.92094  0.43309  1.0000
  O  Te23      1.0  0.28876  0.87592  0.43549  1.0000
  O  Te24      1.0  0.18051  0.81591  0.08587  1.0000
  Mg  Mg11      1.0  0.26986  0.91553  0.53385  1.0000
  Mg  Mg12      1.0  0.16582  0.76233  0.98503  1.0000
  C  Sn25      1.0  0.35906  0.64515  0.19879  1.0000
  C   C125      1.0  0.35641  0.60673  0.26311  1.0000
  C  Sn26      1.0  0.30582  0.59225  0.30954  1.0000
  C  Sn27      1.0  0.25683  0.61667  0.29124  1.0000
  C   C126      1.0  0.25949  0.65506  0.22694  1.0000
  C  Sn28      1.0  0.31007  0.66957  0.18049  1.0000
  O  Te25      1.0  0.41008  0.65901  0.15317  1.0000
  O  Te26      1.0  0.30421  0.55375  0.37358  1.0000
  O  Te27      1.0  0.20579  0.60278  0.33693  1.0000
  O  Te28      1.0  0.31169  0.70804  0.11646  1.0000
  Mg  Mg13      1.0  0.22483  0.54827  0.41801  1.0000
  Mg  Mg14      1.0  0.39104  0.71355  0.07192  1.0000
  C  Sn29      1.0  0.85626  0.11720  0.39119  1.0000
  C   C127      1.0  0.85234  0.09615  0.28628  1.0000
  C  Sn30      1.0  0.81313  0.10721  0.16073  1.0000
  C  Sn31      1.0  0.77712  0.14002  0.13953  1.0000
  C   C128      1.0  0.78106  0.16106  0.24438  1.0000
  C  Sn32      1.0  0.82024  0.15001  0.36999  1.0000
  O  Te29      1.0  0.89576  0.10562  0.51588  1.0000
  O  Te30      1.0  0.80999  0.08570  0.05741  1.0000
  O  Te31      1.0  0.73759  0.15160  0.01471  1.0000
  O  Te32      1.0  0.82341  0.17151  0.47325  1.0000
  Mg  Mg15      1.0  0.81521  0.05402  0.90541  1.0000
  Mg  Mg16      1.0  0.88403  0.14426  0.62525  1.0000
  C  Sn33      1.0  0.33086  0.37132  0.89451  1.0000
  C   C129      1.0  0.35324  0.39094  0.77620  1.0000
  C  Sn34      1.0  0.32695  0.38895  0.63982  1.0000
  C  Sn35      1.0  0.27722  0.36691  0.62129  1.0000
  C   C130      1.0  0.25486  0.34731  0.73955  1.0000
  C  Sn36      1.0  0.28113  0.34927  0.87598  1.0000
  O  Te33      1.0  0.29199  0.43268  0.02986  1.0000
  O  Te34      1.0  0.35013  0.40881  0.52317  1.0000
  O  Te35      1.0  0.25025  0.36453  0.48580  1.0000
  O  Te36      1.0  0.25797  0.32944  0.99258  1.0000
  Mg  Mg17      1.0  0.29798  0.39668  0.36012  1.0000
  Mg  Mg18      1.0  0.24422  0.40053  0.15567  1.0000
  C  Sn37      1.0  0.83879  0.84694  0.67340  1.0000
  C   C131      1.0  0.79629  0.83640  0.75822  1.0000
  C  Sn38      1.0  0.77717  0.86165  0.83197  1.0000
  C  Sn39      1.0  0.80100  0.89820  0.82064  1.0000
  C   C132      1.0  0.84347  0.90873  0.73584  1.0000
  C  Sn40      1.0  0.86263  0.88350  0.66207  1.0000
  O  Te37      1.0  0.85725  0.82124  0.60061  1.0000
  O  Te38      1.0  0.73465  0.85046  0.91615  1.0000
  O  Te39      1.0  0.78251  0.92391  0.89352  1.0000
  O  Te40      1.0  0.90511  0.89467  0.57791  1.0000
  Mg  Mg19      1.0  0.72363  0.89552  0.99471  1.0000
  Mg  Mg20      1.0  0.91614  0.84965  0.49926  1.0000
  C  Sn41      1.0  0.70986  0.59752  0.86838  1.0000
  C   C133      1.0  0.65358  0.59930  0.79430  1.0000
  C  Sn42      1.0  0.63562  0.62918  0.67835  1.0000
  C  Sn43      1.0  0.67473  0.65787  0.63549  1.0000
  C   C134      1.0  0.73097  0.65608  0.70953  1.0000
  C  Sn44      1.0  0.74897  0.62621  0.82552  1.0000
  O  Te41      1.0  0.72689  0.56738  0.98397  1.0000
  O  Te42      1.0  0.57913  0.63036  0.60598  1.0000
  O  Te43      1.0  0.65765  0.68802  0.51980  1.0000
  O  Te44      1.0  0.80542  0.62502  0.89785  1.0000
  Mg  Mg21      1.0  0.57630  0.67713  0.45516  1.0000
  Mg  Mg22      1.0  0.74246  0.63723  0.04863  1.0000
  C  Sn45      1.0  0.21153  0.12970  0.61215  1.0000
  C   C135      1.0  0.21849  0.15784  0.69086  1.0000
  C  Sn46      1.0  0.19251  0.15468  0.81140  1.0000
  C  Sn47      1.0  0.15889  0.12272  0.85423  1.0000
  C   C136      1.0  0.15195  0.09459  0.77556  1.0000
  C  Sn48      1.0  0.17791  0.09773  0.65498  1.0000
  O  Te45      1.0  0.23791  0.13344  0.49201  1.0000
  O  Te46      1.0  0.20007  0.18319  0.88835  1.0000
  O  Te47      1.0  0.13251  0.11899  0.97448  1.0000
  O  Te48      1.0  0.17037  0.06924  0.57807  1.0000
  Mg  Mg23      1.0  0.08967  0.22423  0.04437  1.0000
  Mg  Mg24      1.0  0.21492  0.08714  0.42208  1.0000
  C  Sn49      1.0  0.66623  0.33815  0.84695  1.0000
  C   C137      1.0  0.70413  0.33580  0.75254  1.0000
  C  Sn50      1.0  0.71602  0.36816  0.65483  1.0000
  C  Sn51      1.0  0.68952  0.40361  0.65146  1.0000
  C   C138      1.0  0.65167  0.40594  0.74585  1.0000
  C  Sn52      1.0  0.63973  0.37360  0.84359  1.0000
  O  Te49      1.0  0.65497  0.30543  0.94374  1.0000
  O  Te50      1.0  0.75404  0.36510  0.56147  1.0000
  O  Te51      1.0  0.70082  0.43633  0.55456  1.0000
  O  Te52      1.0  0.60175  0.37664  0.93692  1.0000
  Mg  Mg25      1.0  0.75567  0.41772  0.44913  1.0000
  Mg  Mg26      1.0  0.53426  0.38302  0.04935  1.0000
  C  Sn53      1.0  0.13831  0.86612  0.67625  1.0000
  C   C139      1.0  0.14073  0.89512  0.75085  1.0000
  C  Sn54      1.0  0.19095  0.90016  0.84181  1.0000
  C  Sn55      1.0  0.23978  0.87572  0.85849  1.0000
  C   C140      1.0  0.23736  0.84675  0.78390  1.0000
  C  Sn56      1.0  0.18715  0.84168  0.69293  1.0000
  O  Te53      1.0  0.08766  0.86161  0.58588  1.0000
  O  Te54      1.0  0.19232  0.92934  0.91530  1.0000
  O  Te55      1.0  0.29046  0.88026  0.94895  1.0000
  O  Te56      1.0  0.18576  0.81253  0.61945  1.0000
  Mg  Mg27      1.0  0.20537  0.98307  0.02595  1.0000
  Mg  Mg28      1.0  0.10690  0.81775  0.50873  1.0000
  C  Sn57      1.0  0.35042  0.62747  0.87235  1.0000
  C   C141      1.0  0.34059  0.59498  0.81724  1.0000
  C  Sn58      1.0  0.29820  0.59554  0.69929  1.0000
  C  Sn59      1.0  0.26496  0.62929  0.63501  1.0000
  C   C142      1.0  0.27481  0.66176  0.69010  1.0000
  C  Sn60      1.0  0.31718  0.66122  0.80807  1.0000
  O  Te57      1.0  0.39303  0.62627  0.99034  1.0000
  O  Te58      1.0  0.28915  0.56270  0.64613  1.0000
  O  Te59      1.0  0.22233  0.63047  0.51693  1.0000
  O  Te60      1.0  0.32625  0.69404  0.86121  1.0000
  Mg  Mg29      1.0  0.22615  0.57848  0.48342  1.0000
  Mg  Mg30      1.0  0.32340  0.73727  0.02386  1.0000
  C  Sn61      1.0  0.84275  0.15345  0.82936  1.0000
  C   C143      1.0  0.78792  0.16123  0.74801  1.0000
  C  Sn62      1.0  0.76073  0.13426  0.67917  1.0000
  C  Sn63      1.0  0.78891  0.09875  0.69196  1.0000
  C   C144      1.0  0.84371  0.09098  0.77328  1.0000
  C  Sn64      1.0  0.87094  0.11794  0.84215  1.0000
  O  Te61      1.0  0.86913  0.18083  0.89726  1.0000
  O  Te62      1.0  0.70591  0.14270  0.59840  1.0000
  O  Te63      1.0  0.76249  0.07136  0.62396  1.0000
  O  Te64      1.0  0.92572  0.10951  0.92289  1.0000
  Mg  Mg31      1.0  0.68769  0.09616  0.52607  1.0000
  Mg  Mg32      1.0  0.94397  0.15602  0.99532  1.0000
