data_image0
_chemical_formula_structural       C6H3NC6H3NC2Sn2C2HTe2HMgC2Sn2C2HTe2HMgC2Sn2C2HTe2HMgC2Sn2C2HTe2HMgC2Sn2C2HTe2HMgC2Sn2C2HTe2HMgC2Sn2C2HTe2HMgC2Sn2C2HTe2HMgC2Sn2C2HTe2HMgC2Sn2C2HTe2HMgC2Sn2C2HTe2HMgC2Sn2C2HTe2HMgC2Sn2C2HTe2HMgC2Sn2C2HTe2HMgC2Sn2C2HTe2HMgC2Sn2C2HTe2HMgC2Sn2C2HTe2HMgC2Sn2C2HTe2HMgC2Sn2C2HTe2HMgC2Sn2C2HTe2HMgC2Sn2C2HTe2HMgC2Sn2C2HTe2HMgC2Sn2C2HTe2HMgC2Sn2C2HTe2HMg
_chemical_formula_sum              "C108 H54 N2 Sn48 Te48 Mg24"
_cell_length_a       35.1279
_cell_length_b       35.0319
_cell_length_c       8.10377
_cell_angle_alpha    84.6914
_cell_angle_beta     83.6453
_cell_angle_gamma    122.01

_symmetry_space_group_name_H-M    'P1'
_space_group_IT_number       1

loop_
  _space_group_symop_operation_xyz
  'x, y, z'

loop_
  _atom_site_type_symbol
  _atom_site_label
  _atom_site_symmetry_multiplicity
  _atom_site_fract_x
  _atom_site_fract_y
  _atom_site_fract_z
  _atom_site_occupancy
  C   C1        1.0  0.71010  0.35813  0.27838  1.0000
  C   C2        1.0  0.64152  0.35892  0.25781  1.0000
  C   C3        1.0  0.64212  0.29069  0.21831  1.0000
  C   C4        1.0  0.68733  0.31334  0.24487  1.0000
  C   C5        1.0  0.68667  0.38045  0.28505  1.0000
  C   C6        1.0  0.61983  0.31418  0.22404  1.0000
  H   H1        1.0  0.70513  0.29569  0.24056  1.0000
  H   H2        1.0  0.70306  0.41428  0.31907  1.0000
  H   H3        1.0  0.58559  0.29795  0.19576  1.0000
  N   N1        1.0  0.33581  0.66356  0.24964  1.0000
  C   C7        1.0  0.70946  0.35784  0.78423  1.0000
  C   C8        1.0  0.64179  0.36029  0.76300  1.0000
  C   C9        1.0  0.64043  0.29101  0.72747  1.0000
  C   C10       1.0  0.68568  0.31283  0.75349  1.0000
  C   C11       1.0  0.68697  0.38113  0.78869  1.0000
  C   C12       1.0  0.61901  0.31523  0.73243  1.0000
  H   H4        1.0  0.70251  0.29423  0.74919  1.0000
  H   H5        1.0  0.70432  0.41529  0.81981  1.0000
  H   H6        1.0  0.58471  0.29945  0.70494  1.0000
  N   N2        1.0  0.33547  0.66417  0.75696  1.0000
  C   C13       1.0  0.82658  0.44932  0.23960  1.0000
  C   C14       1.0  0.84693  0.43158  0.33134  1.0000
  C  Sn1       1.0  0.82161  0.38568  0.41005  1.0000
  C  Sn2       1.0  0.77507  0.35709  0.39640  1.0000
  C   C15       1.0  0.75503  0.37515  0.30423  1.0000
  C   C16       1.0  0.78067  0.42113  0.22601  1.0000
  H   H7        1.0  0.84642  0.48489  0.17900  1.0000
  O  Te1       1.0  0.84248  0.36852  0.50127  1.0000
  O  Te2       1.0  0.74898  0.31108  0.47376  1.0000
  H   H8        1.0  0.76491  0.43484  0.15490  1.0000
  Mg  Mg1       1.0  0.79273  0.30359  0.58422  1.0000
  C   C17       1.0  0.41265  0.74738  0.29053  1.0000
  C   C18       1.0  0.37034  0.71730  0.24855  1.0000
  C  Sn3       1.0  0.34863  0.73424  0.16157  1.0000
  C  Sn4       1.0  0.36975  0.78220  0.11591  1.0000
  C   C19       1.0  0.41209  0.81202  0.15840  1.0000
  C   C20       1.0  0.43351  0.79470  0.24549  1.0000
  H   H9        1.0  0.42923  0.73399  0.35783  1.0000
  O  Te3       1.0  0.30636  0.70370  0.12067  1.0000
  O  Te4       1.0  0.34881  0.80006  0.02890  1.0000
  H   H10       1.0  0.46628  0.81800  0.27788  1.0000
  Mg  Mg2       1.0  0.29134  0.74461  0.00147  1.0000
  C   C21       1.0  0.62887  0.45326  0.18650  1.0000
  C   C22       1.0  0.58263  0.43606  0.24147  1.0000
  C  Sn5       1.0  0.55233  0.39021  0.31746  1.0000
  C  Sn6       1.0  0.56874  0.36111  0.33867  1.0000
  C   C23       1.0  0.61507  0.37865  0.28336  1.0000
  C   C24       1.0  0.64508  0.42459  0.20743  1.0000
  H   H11       1.0  0.65210  0.48881  0.12784  1.0000
  O  Te5       1.0  0.50623  0.37358  0.37159  1.0000
  O  Te6       1.0  0.53920  0.31514  0.41427  1.0000
  H   H12       1.0  0.68089  0.43790  0.16499  1.0000
  Mg  Mg3       1.0  0.47935  0.30847  0.46728  1.0000
  C   C25       1.0  0.22631  0.57370  0.21945  1.0000
  C   C26       1.0  0.19596  0.58301  0.30316  1.0000
  C  Sn7       1.0  0.21252  0.62299  0.37102  1.0000
  C  Sn8       1.0  0.26037  0.65417  0.35453  1.0000
  C   C27       1.0  0.29046  0.64455  0.27045  1.0000
  C   C28       1.0  0.27351  0.60444  0.20307  1.0000
  H   H13       1.0  0.21321  0.54267  0.16722  1.0000
  O  Te7       1.0  0.18172  0.63176  0.45432  1.0000
  O  Te8       1.0  0.27785  0.69439  0.42110  1.0000
  H   H14       1.0  0.29702  0.59725  0.13816  1.0000
  Mg  Mg4       1.0  0.22215  0.69116  0.52369  1.0000
  C   C29       1.0  0.62973  0.19277  0.06601  1.0000
  C   C30       1.0  0.58494  0.15654  0.13422  1.0000
  C  Sn9       1.0  0.55480  0.16437  0.22888  1.0000
  C  Sn10      1.0  0.56987  0.20934  0.25549  1.0000
  C   C31       1.0  0.61474  0.24537  0.18661  1.0000
  C   C32       1.0  0.64462  0.23715  0.09213  1.0000
  H   H15       1.0  0.60161  0.13778  0.99283  1.0000
  O  Te9       1.0  0.51016  0.12777  0.29618  1.0000
  O  Te10      1.0  0.54045  0.21813  0.34955  1.0000
  H   H16       1.0  0.67929  0.26521  0.03924  1.0000
  Mg  Mg5       1.0  0.48285  0.15701  0.41543  1.0000
  C   C33       1.0  0.41202  0.66004  0.12225  1.0000
  C   C34       1.0  0.36874  0.64525  0.21129  1.0000
  C  Sn11      1.0  0.34338  0.60362  0.32415  1.0000
  C  Sn12      1.0  0.36179  0.57639  0.34808  1.0000
  C   C35       1.0  0.40512  0.59151  0.25849  1.0000
  C   C36       1.0  0.43020  0.63321  0.14583  1.0000
  H   H17       1.0  0.43144  0.69232  0.03515  1.0000
  O  Te11      1.0  0.30020  0.58935  0.41204  1.0000
  O  Te12      1.0  0.33718  0.53465  0.46015  1.0000
  H   H18       1.0  0.46372  0.64467  0.07699  1.0000
  Mg  Mg6       1.0  0.27981  0.52988  0.55072  1.0000
  C   C37       1.0  0.41907  0.50062  0.24382  1.0000
  C   C38       1.0  0.46574  0.51913  0.23541  1.0000
  C  Sn13      1.0  0.49567  0.56574  0.23547  1.0000
  C  Sn14      1.0  0.47845  0.59426  0.24417  1.0000
  C   C39       1.0  0.43170  0.57540  0.25267  1.0000
  C   C40       1.0  0.40206  0.52872  0.25248  1.0000
  H   H19       1.0  0.39613  0.46449  0.24377  1.0000
  O  Te13      1.0  0.54220  0.58368  0.22694  1.0000
  O  Te14      1.0  0.50760  0.64096  0.24450  1.0000
  H   H20       1.0  0.36592  0.51439  0.25910  1.0000
  Mg  Mg7       1.0  0.56830  0.64939  0.23097  1.0000
  C   C41       1.0  0.55496  0.51989  0.13184  1.0000
  C   C42       1.0  0.51177  0.50665  0.21651  1.0000
  C  Sn15      1.0  0.48520  0.46571  0.33278  1.0000
  C  Sn16      1.0  0.50230  0.43758  0.36464  1.0000
  C   C43       1.0  0.54557  0.45114  0.27937  1.0000
  C   C44       1.0  0.57186  0.49217  0.16324  1.0000
  H   H21       1.0  0.57532  0.55164  0.04206  1.0000
  O  Te15      1.0  0.44211  0.45299  0.41622  1.0000
  O  Te16      1.0  0.47647  0.39650  0.48025  1.0000
  H   H22       1.0  0.60531  0.50242  0.09779  1.0000
  Mg  Mg8       1.0  0.41977  0.39389  0.56235  1.0000
  C   C45       1.0  0.50632  0.92510  0.08681  1.0000
  C   C46       1.0  0.48826  0.95133  0.12159  1.0000
  C  Sn17      1.0  0.44196  0.93002  0.19114  1.0000
  C  Sn18      1.0  0.41331  0.88154  0.22643  1.0000
  C   C47       1.0  0.43172  0.85561  0.19129  1.0000
  C   C48       1.0  0.47809  0.87729  0.12164  1.0000
  H   H23       1.0  0.54221  0.94187  0.03300  1.0000
  O  Te17      1.0  0.42447  0.95674  0.22505  1.0000
  O  Te18      1.0  0.36692  0.85936  0.29601  1.0000
  H   H24       1.0  0.49207  0.85697  0.09482  1.0000
  Mg  Mg9       1.0  0.35906  0.91065  0.31983  1.0000
  C   C49       1.0  0.49503  0.06432  0.09284  1.0000
  C   C50       1.0  0.53688  0.09448  0.13775  1.0000
  C  Sn19      1.0  0.56540  0.07974  0.17585  1.0000
  C  Sn20      1.0  0.55167  0.03394  0.16871  1.0000
  C   C51       1.0  0.50975  0.00404  0.12354  1.0000
  C   C52       1.0  0.48148  0.01914  0.08571  1.0000
  H   H25       1.0  0.47317  0.07600  0.06348  1.0000
  O  Te19      1.0  0.60709  0.11032  0.22054  1.0000
  O  Te20      1.0  0.57951  0.01832  0.20611  1.0000
  H   H26       1.0  0.97771  0.99579  0.05084  1.0000
  Mg  Mg10      1.0  0.63317  0.07289  0.26044  1.0000
  C   C53       1.0  0.11019  0.58730  0.25358  1.0000
  C   C54       1.0  0.13625  0.57257  0.32012  1.0000
  C  Sn21      1.0  0.11548  0.52722  0.39998  1.0000
  C  Sn22      1.0  0.06773  0.49610  0.41324  1.0000
  C   C55       1.0  0.04197  0.51116  0.34616  1.0000
  C   C56       1.0  0.06310  0.55662  0.26655  1.0000
  H   H27       1.0  0.12654  0.62247  0.19191  1.0000
  O  Te21      1.0  0.14202  0.51308  0.46581  1.0000
  O  Te22      1.0  0.04610  0.45057  0.49236  1.0000
  H   H28       1.0  0.04292  0.56800  0.21495  1.0000
  Mg  Mg11      1.0  0.09687  0.44762  0.56224  1.0000
  C   C57       1.0  0.93425  0.49987  0.40585  1.0000
  C   C58       1.0  0.90577  0.45853  0.35318  1.0000
  C  Sn23      1.0  0.92233  0.43175  0.30746  1.0000
  C  Sn24      1.0  0.96828  0.44671  0.31478  1.0000
  C   C59       1.0  0.99649  0.48809  0.36776  1.0000
  C   C60       1.0  0.97956  0.51464  0.41317  1.0000
  H   H29       1.0  0.92115  0.52039  0.44108  1.0000
  O  Te23      1.0  0.89342  0.39055  0.25507  1.0000
  O  Te24      1.0  0.98571  0.42060  0.26986  1.0000
  H   H30       1.0  0.00161  0.54662  0.45405  1.0000
  Mg  Mg12      1.0  0.93299  0.36698  0.20663  1.0000
  C   C61       1.0  0.79989  0.43862  0.73898  1.0000
  C   C62       1.0  0.76515  0.39225  0.78498  1.0000
  C  Sn25      1.0  0.77318  0.36162  0.87186  1.0000
  C  Sn26      1.0  0.81683  0.37781  0.91333  1.0000
  C   C63       1.0  0.85135  0.42428  0.86686  1.0000
  C   C64       1.0  0.84295  0.45463  0.77989  1.0000
  H   H31       1.0  0.79339  0.46211  0.67177  1.0000
  O  Te25      1.0  0.73810  0.31539  0.91680  1.0000
  O  Te26      1.0  0.87703  0.39659  0.00017  1.0000
  H   H32       1.0  0.86985  0.49054  0.74440  1.0000
  Mg  Mg13      1.0  0.81820  0.33667  0.03401  1.0000
  C   C65       1.0  0.41485  0.74889  0.77956  1.0000
  C   C66       1.0  0.37137  0.71814  0.74790  1.0000
  C  Sn27      1.0  0.34736  0.73427  0.67318  1.0000
  C  Sn28      1.0  0.36735  0.78209  0.62945  1.0000
  C   C67       1.0  0.41089  0.81257  0.66153  1.0000
  C   C68       1.0  0.43460  0.79606  0.73640  1.0000
  H   H33       1.0  0.43321  0.73611  0.83740  1.0000
  O  Te27      1.0  0.30394  0.70308  0.64249  1.0000
  O  Te28      1.0  0.34412  0.79915  0.55458  1.0000
  H   H34       1.0  0.46828  0.81988  0.76080  1.0000
  Mg  Mg14      1.0  0.28581  0.74300  0.53804  1.0000
  C   C69       1.0  0.54775  0.37298  0.83714  1.0000
  C   C70       1.0  0.56508  0.41940  0.78716  1.0000
  C  Sn29      1.0  0.61142  0.45017  0.71810  1.0000
  C  Sn30      1.0  0.64089  0.43406  0.69884  1.0000
  C   C71       1.0  0.62321  0.38756  0.74913  1.0000
  C   C72       1.0  0.57678  0.35707  0.81813  1.0000
  H   H35       1.0  0.51182  0.34938  0.89045  1.0000
  O  Te29      1.0  0.62817  0.49643  0.66888  1.0000
  O  Te30      1.0  0.68735  0.46407  0.63013  1.0000
  H   H36       1.0  0.56337  0.32113  0.85672  1.0000
  Mg  Mg15      1.0  0.69401  0.52399  0.58192  1.0000
  C   C73       1.0  0.25158  0.65555  0.87422  1.0000
  C   C74       1.0  0.28132  0.64314  0.81009  1.0000
  C  Sn31      1.0  0.26509  0.60444  0.73439  1.0000
  C  Sn32      1.0  0.21821  0.57772  0.72282  1.0000
  C   C75       1.0  0.18874  0.59044  0.78726  1.0000
  C   C76       1.0  0.20534  0.62923  0.86281  1.0000
  H   H37       1.0  0.26442  0.68557  0.93260  1.0000
  O  Te31      1.0  0.29527  0.59252  0.67102  1.0000
  O  Te32      1.0  0.20109  0.53888  0.64774  1.0000
  H   H38       1.0  0.18231  0.63884  0.91236  1.0000
  Mg  Mg16      1.0  0.25566  0.53659  0.58003  1.0000
  C   C77       1.0  0.55795  0.20130  0.76520  1.0000
  C   C78       1.0  0.60435  0.23592  0.71875  1.0000
  C  Sn33      1.0  0.63477  0.22790  0.62727  1.0000
  C  Sn34      1.0  0.61834  0.18438  0.58158  1.0000
  C   C79       1.0  0.57186  0.14998  0.62855  1.0000
  C   C80       1.0  0.54171  0.15837  0.72013  1.0000
  H   H39       1.0  0.53462  0.20779  0.83598  1.0000
  O  Te33      1.0  0.68102  0.26287  0.58194  1.0000
  O  Te34      1.0  0.64799  0.17545  0.49011  1.0000
  H   H40       1.0  0.50579  0.13157  0.75598  1.0000
  Mg  Mg17      1.0  0.70803  0.23408  0.45761  1.0000
  C   C81       1.0  0.41224  0.66036  0.63855  1.0000
  C   C82       1.0  0.36799  0.64515  0.71828  1.0000
  C  Sn35      1.0  0.34049  0.60202  0.82113  1.0000
  C  Sn36      1.0  0.35769  0.57368  0.84439  1.0000
  C   C83       1.0  0.40202  0.58923  0.76416  1.0000
  C   C84       1.0  0.42924  0.63244  0.66147  1.0000
  H   H41       1.0  0.43331  0.69380  0.55917  1.0000
  O  Te35      1.0  0.29635  0.58734  0.89980  1.0000
  O  Te36      1.0  0.33094  0.53044  0.94656  1.0000
  H   H42       1.0  0.46351  0.64423  0.59985  1.0000
  Mg  Mg18      1.0  0.32424  0.57431  0.02684  1.0000
  C   C85       1.0  0.41528  0.49803  0.73781  1.0000
  C   C86       1.0  0.46142  0.51532  0.73786  1.0000
  C  Sn37      1.0  0.49151  0.56128  0.74737  1.0000
  C  Sn38      1.0  0.47500  0.59038  0.75703  1.0000
  C   C87       1.0  0.42878  0.57275  0.75701  1.0000
  C   C88       1.0  0.39897  0.52671  0.74740  1.0000
  H   H43       1.0  0.39221  0.46241  0.73046  1.0000
  O  Te37      1.0  0.53750  0.57799  0.74722  1.0000
  O  Te38      1.0  0.50433  0.63644  0.76670  1.0000
  H   H44       1.0  0.36324  0.51333  0.74747  1.0000
  Mg  Mg19      1.0  0.56410  0.64322  0.76238  1.0000
  C   C89       1.0  0.56333  0.50549  0.63174  1.0000
  C   C90       1.0  0.55247  0.46598  0.73829  1.0000
  C  Sn39      1.0  0.51123  0.44059  0.85438  1.0000
  C  Sn40      1.0  0.48037  0.45511  0.86364  1.0000
  C   C91       1.0  0.49154  0.49467  0.75641  1.0000
  C   C92       1.0  0.53291  0.51982  0.64075  1.0000
  H   H45       1.0  0.59532  0.52495  0.54218  1.0000
  O  Te39      1.0  0.50092  0.40121  0.95993  1.0000
  O  Te40      1.0  0.43891  0.43036  0.97846  1.0000
  H   H46       1.0  0.54130  0.55040  0.55820  1.0000
  Mg  Mg20      1.0  0.49148  0.42766  0.09559  1.0000
  C   C93       1.0  0.41187  0.89124  0.72860  1.0000
  C   C94       1.0  0.42813  0.86474  0.67570  1.0000
  C  Sn41      1.0  0.47480  0.88490  0.61675  1.0000
  C  Sn42      1.0  0.50569  0.93246  0.61084  1.0000
  C   C95       1.0  0.48908  0.95866  0.66416  1.0000
  C   C96       1.0  0.44231  0.93815  0.72287  1.0000
  H   H47       1.0  0.37568  0.87536  0.77411  1.0000
  O  Te41      1.0  0.49047  0.85793  0.56433  1.0000
  O  Te42      1.0  0.55251  0.95348  0.55255  1.0000
  H   H48       1.0  0.42973  0.95867  0.76392  1.0000
  Mg  Mg21      1.0  0.55732  0.90229  0.49491  1.0000
  C   C97       1.0  0.49730  0.06502  0.58638  1.0000
  C   C98       1.0  0.53623  0.09487  0.64867  1.0000
  C  Sn43      1.0  0.56329  0.08018  0.70545  1.0000
  C  Sn44      1.0  0.55108  0.03476  0.69956  1.0000
  C   C99       1.0  0.51208  0.00518  0.63691  1.0000
  C   C100      1.0  0.48523  0.02022  0.58047  1.0000
  H   H49       1.0  0.47653  0.07667  0.54262  1.0000
  O  Te43      1.0  0.60207  0.11044  0.76736  1.0000
  O  Te44      1.0  0.57753  0.01920  0.75544  1.0000
  H   H50       1.0  0.45511  0.99711  0.53215  1.0000
  Mg  Mg22      1.0  0.62720  0.07324  0.82898  1.0000
  C   C101      1.0  0.10957  0.59054  0.77082  1.0000
  C   C102      1.0  0.13574  0.57471  0.82789  1.0000
  C  Sn45      1.0  0.11526  0.52837  0.89328  1.0000
  C  Sn46      1.0  0.06770  0.49738  0.90149  1.0000
  C   C103      1.0  0.04183  0.51355  0.84396  1.0000
  C   C104      1.0  0.06267  0.55999  0.77881  1.0000
  H   H51       1.0  0.12569  0.62646  0.72032  1.0000
  O  Te45      1.0  0.14190  0.51314  0.94981  1.0000
  O  Te46      1.0  0.04637  0.45089  0.96621  1.0000
  H   H52       1.0  0.04241  0.57223  0.73453  1.0000
  Mg  Mg23      1.0  0.14842  0.49526  0.02758  1.0000
  C   C105      1.0  0.93490  0.42861  0.79962  1.0000
  C   C106      1.0  0.90445  0.44140  0.84912  1.0000
  C  Sn47      1.0  0.92037  0.48376  0.89826  1.0000
  C  Sn48      1.0  0.96769  0.51380  0.89766  1.0000
  C   C107      1.0  0.99789  0.50070  0.84780  1.0000
  C   C108      1.0  0.98158  0.45823  0.79892  1.0000
  H   H53       1.0  0.92229  0.39576  0.76170  1.0000
  O  Te47      1.0  0.88947  0.49599  0.94742  1.0000
  O  Te48      1.0  0.98453  0.55634  0.94611  1.0000
  H   H54       1.0  0.00517  0.44834  0.76049  1.0000
  Mg  Mg24      1.0  0.98019  0.60621  0.00278  1.0000
