data_image0
_chemical_formula_structural       ONC3H2ONC3H2ONC3H2ONC3H2ONC3H2ONC3H2ONC3H2ONC3H2ONC3H2ONC3H2ONC3H2ONC3H2C2Sn2C2HTe2HMgC2Sn2C2HTe2HMgC2Sn2C2HTe2HMgC2Sn2C2HTe2HMgC2Sn2C2HTe2HMgC2Sn2C2HTe2HMgC2Sn2C2HTe2HMgC2Sn2C2HTe2HMgC2Sn2C2HTe2HMgC2Sn2C2HTe2HMgC2Sn2C2HTe2HMgC2Sn2C2HTe2HMg
_chemical_formula_sum              "O12 N12 C84 H48 Sn24 Te24 Mg12"
_cell_length_a       30.0488
_cell_length_b       30.01
_cell_length_c       8.15151
_cell_angle_alpha    122.504
_cell_angle_beta     85.6434
_cell_angle_gamma    119.831

_symmetry_space_group_name_H-M    'P1'
_space_group_IT_number       1

loop_
  _space_group_symop_operation_xyz
  'x, y, z'

loop_
  _atom_site_type_symbol
  _atom_site_label
  _atom_site_symmetry_multiplicity
  _atom_site_fract_x
  _atom_site_fract_y
  _atom_site_fract_z
  _atom_site_occupancy
  O   O1        1.0  0.29615  0.56264  0.99881  1.0000
  N   N1        1.0  0.39135  0.58582  0.02219  1.0000
  C   C1        1.0  0.31262  0.61052  0.99750  1.0000
  C   C2        1.0  0.40450  0.63468  0.01725  1.0000
  C   C3        1.0  0.36777  0.64873  0.00509  1.0000
  H   H1        1.0  0.44530  0.66492  0.02339  1.0000
  H   H2        1.0  0.35090  0.56176  0.01832  1.0000
  O   O2        1.0  0.43567  0.73569  0.00708  1.0000
  N   N2        1.0  0.41452  0.80490  0.97707  1.0000
  C   C4        1.0  0.38716  0.70319  0.00062  1.0000
  C   C5        1.0  0.36511  0.76961  0.97988  1.0000
  C   C6        1.0  0.34954  0.71920  0.98996  1.0000
  H   H3        1.0  0.33546  0.77967  0.97208  1.0000
  H   H4        1.0  0.43843  0.78963  0.98654  1.0000
  O   O3        1.0  0.26286  0.70036  0.98850  1.0000
  N   N3        1.0  0.18819  0.60670  0.98809  1.0000
  C   C7        1.0  0.29435  0.68369  0.98963  1.0000
  C   C8        1.0  0.22452  0.59352  0.99151  1.0000
  C   C9        1.0  0.27657  0.62916  0.99084  1.0000
  H   H5        1.0  0.21353  0.55393  0.99693  1.0000
  H   H6        1.0  0.20523  0.64723  0.98945  1.0000
  O   O4        1.0  0.70316  0.43648  0.99969  1.0000
  N   N4        1.0  0.60915  0.41779  0.98928  1.0000
  C   C10       1.0  0.68581  0.38872  0.00233  1.0000
  C   C11       1.0  0.59538  0.36887  0.99524  1.0000
  C   C12       1.0  0.63089  0.35266  0.00162  1.0000
  H   H7        1.0  0.55478  0.34022  0.99523  1.0000
  H   H8        1.0  0.64923  0.44048  0.98792  1.0000
  O   O5        1.0  0.56206  0.26701  0.00417  1.0000
  N   N5        1.0  0.58109  0.19521  0.02965  1.0000
  C   C13       1.0  0.61050  0.29814  0.00735  1.0000
  C   C14       1.0  0.63063  0.23005  0.02618  1.0000
  C   C15       1.0  0.64707  0.28051  0.01538  1.0000
  H   H9        1.0  0.65953  0.21867  0.03073  1.0000
  H   H10       1.0  0.55733  0.21042  0.01941  1.0000
  O   O6        1.0  0.73194  0.29427  0.99841  1.0000
  N   N6        1.0  0.80768  0.38642  0.98995  1.0000
  C   C16       1.0  0.70171  0.31320  0.00536  1.0000
  C   C17       1.0  0.77206  0.40125  0.99426  1.0000
  C   C18       1.0  0.72043  0.36765  0.00242  1.0000
  H   H11       1.0  0.78351  0.44136  0.99142  1.0000
  H   H12       1.0  0.79090  0.34636  0.99030  1.0000
  O   O7        1.0  0.29688  0.56244  0.49828  1.0000
  N   N7        1.0  0.39218  0.58495  0.52520  1.0000
  C   C19       1.0  0.31398  0.61036  0.49667  1.0000
  C   C20       1.0  0.40557  0.63346  0.51757  1.0000
  C   C21       1.0  0.36927  0.64789  0.50392  1.0000
  H   H13       1.0  0.44637  0.66315  0.52217  1.0000
  H   H14       1.0  0.35172  0.56092  0.52041  1.0000
  O   O8        1.0  0.43784  0.73355  0.50127  1.0000
  N   N8        1.0  0.41869  0.80498  0.47623  1.0000
  C   C22       1.0  0.38934  0.70214  0.49730  1.0000
  C   C23       1.0  0.36915  0.77036  0.48026  1.0000
  C   C24       1.0  0.35256  0.71934  0.48810  1.0000
  H   H15       1.0  0.34024  0.78179  0.47657  1.0000
  H   H16       1.0  0.44201  0.78877  0.48253  1.0000
  O   O9        1.0  0.26649  0.70253  0.49117  1.0000
  N   N9        1.0  0.19070  0.60906  0.48988  1.0000
  C   C25       1.0  0.29732  0.68481  0.48974  1.0000
  C   C26       1.0  0.22646  0.59488  0.49085  1.0000
  C   C27       1.0  0.27866  0.62987  0.48992  1.0000
  H   H17       1.0  0.21482  0.55497  0.49525  1.0000
  H   H18       1.0  0.20822  0.65007  0.49397  1.0000
  O   O10       1.0  0.70334  0.43630  0.49823  1.0000
  N   N10       1.0  0.60905  0.41570  0.48830  1.0000
  C   C28       1.0  0.68689  0.38868  0.50087  1.0000
  C   C29       1.0  0.59583  0.36689  0.49383  1.0000
  C   C30       1.0  0.63218  0.35173  0.50025  1.0000
  H   H19       1.0  0.55536  0.33774  0.49359  1.0000
  H   H20       1.0  0.64921  0.43875  0.48734  1.0000
  O   O11       1.0  0.56460  0.26536  0.50168  1.0000
  N   N11       1.0  0.58587  0.19602  0.53161  1.0000
  C   C31       1.0  0.61293  0.29741  0.50566  1.0000
  C   C32       1.0  0.63509  0.23107  0.52668  1.0000
  C   C33       1.0  0.65045  0.28100  0.51401  1.0000
  H   H21       1.0  0.66458  0.22057  0.53232  1.0000
  H   H22       1.0  0.56165  0.21066  0.52014  1.0000
  O   O12       1.0  0.73618  0.29722  0.50038  1.0000
  N   N12       1.0  0.80996  0.38891  0.48709  1.0000
  C   C34       1.0  0.70499  0.31481  0.50503  1.0000
  C   C35       1.0  0.77384  0.40308  0.49156  1.0000
  C   C36       1.0  0.72250  0.36881  0.50085  1.0000
  H   H23       1.0  0.78443  0.44278  0.48755  1.0000
  H   H24       1.0  0.79357  0.34912  0.48917  1.0000
  C   C37       1.0  0.50503  0.57987  0.00394  1.0000
  C   C38       1.0  0.49238  0.53232  0.02694  1.0000
  C  Sn1       1.0  0.44177  0.49787  0.04326  1.0000
  C  Sn2       1.0  0.40319  0.51137  0.03631  1.0000
  C   C39       1.0  0.41623  0.55900  0.01311  1.0000
  C   C40       1.0  0.53597  0.77352  0.99699  1.0000
  H   H25       1.0  0.61327  0.78662  0.99136  1.0000
  O  Te1       1.0  0.42980  0.45054  0.06624  1.0000
  O  Te2       1.0  0.35230  0.47765  0.05218  1.0000
  H   H26       1.0  0.54574  0.81030  0.97905  1.0000
  Mg  Mg1       1.0  0.35501  0.41763  0.08154  1.0000
  C   C41       1.0  0.40562  0.89597  0.98720  1.0000
  C   C42       1.0  0.42545  0.85971  0.95983  1.0000
  C  Sn3       1.0  0.47828  0.88010  0.95358  1.0000
  C  Sn4       1.0  0.51179  0.93788  0.97525  1.0000
  C   C43       1.0  0.42261  0.79352  0.00271  1.0000
  C   C44       1.0  0.36968  0.77267  0.00866  1.0000
  H   H27       1.0  0.36468  0.87986  0.99192  1.0000
  O  Te3       1.0  0.49745  0.84328  0.92604  1.0000
  O  Te4       1.0  0.56476  0.95938  0.96967  1.0000
  H   H28       1.0  0.35434  0.80077  0.02999  1.0000
  Mg  Mg2       1.0  0.57246  0.89254  0.92881  1.0000
  C   C45       1.0  0.09818  0.50429  0.96776  1.0000
  C   C46       1.0  0.12951  0.55861  0.97275  1.0000
  C  Sn5       1.0  0.10915  0.59404  0.99626  1.0000
  C  Sn6       1.0  0.98746  0.39431  0.01514  1.0000
  C   C47       1.0  0.95646  0.33992  0.01011  1.0000
  C   C48       1.0  0.04619  0.48512  0.98645  1.0000
  H   H29       1.0  0.11425  0.47714  0.94956  1.0000
  O  Te5       1.0  0.07201  0.46786  0.00086  1.0000
  O  Te6       1.0  0.96613  0.42886  0.03888  1.0000
  H   H30       1.0  0.02194  0.44309  0.98272  1.0000
  Mg  Mg3       1.0  0.02508  0.49920  0.03606  1.0000
  C   C49       1.0  0.58309  0.51888  0.99802  1.0000
  C   C50       1.0  0.52961  0.49651  0.99623  1.0000
  C  Sn7       1.0  0.42966  0.26394  0.00227  1.0000
  C  Sn8       1.0  0.45277  0.23362  0.01029  1.0000
  C   C51       1.0  0.50631  0.25639  0.01216  1.0000
  C   C52       1.0  0.53694  0.30871  0.00601  1.0000
  H   H31       1.0  0.60680  0.55938  0.99337  1.0000
  O  Te7       1.0  0.37629  0.24219  0.00031  1.0000
  O  Te8       1.0  0.42272  0.18132  0.01651  1.0000
  H   H32       1.0  0.57836  0.32604  0.00752  1.0000
  Mg  Mg4       1.0  0.35167  0.16928  0.01080  1.0000
  C   C53       1.0  0.98858  0.08972  0.97687  1.0000
  C   C54       1.0  0.97356  0.95591  0.03605  1.0000
  C  Sn9       1.0  0.01210  0.94710  0.07378  1.0000
  C  Sn10      1.0  0.99620  0.89061  0.05168  1.0000
  C   C55       1.0  0.01110  0.02467  0.99226  1.0000
  C   C56       1.0  0.97288  0.03399  0.95495  1.0000
  H   H33       1.0  0.95900  0.09691  0.94789  1.0000
  O  Te9       1.0  0.06582  0.99405  0.13286  1.0000
  O  Te10      1.0  0.03389  0.88057  0.08835  1.0000
  H   H34       1.0  0.93111  0.99796  0.90900  1.0000
  Mg  Mg5       1.0  0.10227  0.95848  0.16556  1.0000
  C   C57       1.0  0.90499  0.39695  0.98817  1.0000
  C   C58       1.0  0.86758  0.41191  0.99091  1.0000
  C  Sn11      1.0  0.88098  0.46225  0.98243  1.0000
  C  Sn12      1.0  0.93282  0.49818  0.97093  1.0000
  C   C59       1.0  0.96994  0.48281  0.96813  1.0000
  C   C60       1.0  0.95612  0.43235  0.97676  1.0000
  H   H35       1.0  0.89429  0.35789  0.99473  1.0000
  O  Te11      1.0  0.84313  0.47657  0.98539  1.0000
  O  Te12      1.0  0.94726  0.54873  0.96221  1.0000
  H   H36       1.0  0.98508  0.42076  0.97450  1.0000
  Mg  Mg6       1.0  0.88178  0.54985  0.97054  1.0000
  C   C61       1.0  0.49142  0.59559  0.52926  1.0000
  C   C62       1.0  0.43752  0.57202  0.52075  1.0000
  C  Sn13      1.0  0.40610  0.51858  0.52035  1.0000
  C  Sn14      1.0  0.42918  0.48829  0.52871  1.0000
  C   C63       1.0  0.48315  0.51227  0.53734  1.0000
  C   C64       1.0  0.51422  0.56576  0.53759  1.0000
  H   H37       1.0  0.51547  0.63700  0.52957  1.0000
  O  Te13      1.0  0.35231  0.49564  0.51171  1.0000
  O  Te14      1.0  0.39870  0.43481  0.52859  1.0000
  H   H38       1.0  0.55596  0.58402  0.54432  1.0000
  Mg  Mg7       1.0  0.32717  0.42140  0.51508  1.0000
  C   C65       1.0  0.51992  0.93274  0.49173  1.0000
  C   C66       1.0  0.49758  0.96224  0.47829  1.0000
  C  Sn15      1.0  0.44381  0.93962  0.47014  1.0000
  C  Sn16      1.0  0.41192  0.88648  0.47563  1.0000
  C   C67       1.0  0.43466  0.85733  0.48924  1.0000
  C   C68       1.0  0.48850  0.88034  0.49724  1.0000
  H   H39       1.0  0.56158  0.95056  0.49804  1.0000
  O  Te15      1.0  0.42213  0.96963  0.45665  1.0000
  O  Te16      1.0  0.35808  0.86290  0.46778  1.0000
  H   H40       1.0  0.50579  0.85752  0.50778  1.0000
  Mg  Mg8       1.0  0.34679  0.91995  0.44993  1.0000
  C   C69       1.0  0.09909  0.50392  0.45009  1.0000
  C   C70       1.0  0.13165  0.56087  0.47124  1.0000
  C  Sn17      1.0  0.11272  0.59907  0.51338  1.0000
  C  Sn18      1.0  0.06021  0.57979  0.53472  1.0000
  C   C71       1.0  0.02796  0.52276  0.51343  1.0000
  C   C72       1.0  0.04730  0.48488  0.47120  1.0000
  H   H41       1.0  0.11406  0.47463  0.41753  1.0000
  O  Te17      1.0  0.14577  0.65581  0.53395  1.0000
  O  Te18      1.0  0.04028  0.61708  0.57691  1.0000
  H   H42       1.0  0.02209  0.44082  0.45497  1.0000
  Mg  Mg9       1.0  0.10055  0.69035  0.59137  1.0000
  C   C73       1.0  0.51163  0.40944  0.50740  1.0000
  C   C74       1.0  0.56245  0.42596  0.47830  1.0000
  C  Sn19      1.0  0.59335  0.47788  0.47053  1.0000
  C  Sn20      1.0  0.57288  0.51386  0.49241  1.0000
  C   C75       1.0  0.52200  0.49698  0.52160  1.0000
  C   C76       1.0  0.49141  0.44492  0.52907  1.0000
  H   H43       1.0  0.48797  0.36918  0.51329  1.0000
  O  Te19      1.0  0.64405  0.49371  0.44127  1.0000
  O  Te20      1.0  0.60292  0.56600  0.48532  1.0000
  H   H44       1.0  0.45207  0.43217  0.55174  1.0000
  Mg  Mg10      1.0  0.66977  0.56882  0.44241  1.0000
  C   C77       1.0  0.98158  0.06325  0.48870  1.0000
  C   C78       1.0  0.00412  0.03268  0.49246  1.0000
  C  Sn21      1.0  0.05914  0.06067  0.52939  1.0000
  C  Sn22      1.0  0.59531  0.12038  0.56317  1.0000
  C   C79       1.0  0.57237  0.15060  0.55924  1.0000
  C   C80       1.0  0.51727  0.12216  0.52209  1.0000
  H   H45       1.0  0.93895  0.04127  0.46007  1.0000
  O  Te21      1.0  0.08100  0.02946  0.53254  1.0000
  O  Te22      1.0  0.65042  0.14943  0.60050  1.0000
  H   H46       1.0  0.49983  0.14586  0.51932  1.0000
  Mg  Mg11      1.0  0.15825  0.08820  0.58969  1.0000
  C   C81       1.0  0.93653  0.41814  0.49746  1.0000
  C   C82       1.0  0.96626  0.46833  0.48045  1.0000
  C  Sn23      1.0  0.94333  0.49772  0.47016  1.0000
  C  Sn24      1.0  0.88965  0.47637  0.47712  1.0000
  C   C83       1.0  0.86025  0.42615  0.49430  1.0000
  C   C84       1.0  0.88358  0.39707  0.50442  1.0000
  H   H47       1.0  0.95458  0.39566  0.50540  1.0000
  O  Te23      1.0  0.97360  0.54778  0.45312  1.0000
  O  Te24      1.0  0.86575  0.50490  0.46720  1.0000
  H   H48       1.0  0.86056  0.35823  0.51772  1.0000
  Mg  Mg12      1.0  0.92332  0.57140  0.44465  1.0000
