data_image0
_chemical_formula_structural       C40H8N4C16H8C20H8C8H8C4F8Cu2CHCHCHCHCHCHCHCHF8N12C40H8N4C16H8C20H8C8H8C4F8Cu2CHCHCHCHCHCHCHCHF8N12SnCSn2CSnTe4Mg2SnCSn2CSnTe4Mg2SnCSn2CSnTe4Mg2SnCSn2CSnTe4Mg2SnCSn2CSnTe4Mg2SnCSn2CSnTe4Mg2SnCSn2CSnTe4Mg2SnCSn2CSnTe4Mg2
_chemical_formula_sum              "C208 H80 N32 F32 Cu4 Sn32 Te32 Mg16"
_cell_length_a       38.6488
_cell_length_b       33.7116
_cell_length_c       13.031
_cell_angle_alpha    89.6816
_cell_angle_beta     90.0322
_cell_angle_gamma    90.0394

_symmetry_space_group_name_H-M    'P1'
_space_group_IT_number       1

loop_
  _space_group_symop_operation_xyz
  'x, y, z'

loop_
  _atom_site_type_symbol
  _atom_site_label
  _atom_site_symmetry_multiplicity
  _atom_site_fract_x
  _atom_site_fract_y
  _atom_site_fract_z
  _atom_site_occupancy
  C   C1        1.0  0.27477  0.71835  0.25680  1.0000
  C   C2        1.0  0.77794  0.22276  0.23619  1.0000
  C   C3        1.0  0.72277  0.27944  0.25575  1.0000
  C   C4        1.0  0.22213  0.77833  0.24597  1.0000
  C   C5        1.0  0.72493  0.72147  0.24685  1.0000
  C   C6        1.0  0.22634  0.22064  0.25294  1.0000
  C   C7        1.0  0.27942  0.28023  0.26708  1.0000
  C   C8        1.0  0.77712  0.78245  0.23468  1.0000
  C   C9        1.0  0.21362  0.73781  0.25173  1.0000
  C   C10       1.0  0.71605  0.23892  0.23831  1.0000
  C   C11       1.0  0.78486  0.26337  0.25315  1.0000
  C   C12       1.0  0.28323  0.75889  0.24866  1.0000
  C   C13       1.0  0.78593  0.74184  0.23380  1.0000
  C   C14       1.0  0.28770  0.23960  0.26316  1.0000
  C   C15       1.0  0.21826  0.26132  0.25681  1.0000
  C   C16       1.0  0.71645  0.76202  0.25273  1.0000
  C   C17       1.0  0.23928  0.70900  0.25629  1.0000
  C   C18       1.0  0.74288  0.21163  0.23108  1.0000
  C   C19       1.0  0.75786  0.29044  0.26435  1.0000
  C   C20       1.0  0.25752  0.78756  0.24267  1.0000
  C   C21       1.0  0.76040  0.71272  0.23652  1.0000
  C   C22       1.0  0.26176  0.21104  0.25702  1.0000
  C   C23       1.0  0.24407  0.29000  0.26527  1.0000
  C   C24       1.0  0.74164  0.79121  0.24169  1.0000
  C   C25       1.0  0.97320  0.91469  0.24565  1.0000
  C   C26       1.0  0.47391  0.41576  0.25812  1.0000
  C   C27       1.0  0.02865  0.08491  0.23928  1.0000
  C   C28       1.0  0.52876  0.58664  0.24166  1.0000
  C   C29       1.0  0.03025  0.91552  0.25041  1.0000
  C   C30       1.0  0.53091  0.41702  0.26324  1.0000
  C   C31       1.0  0.97130  0.08404  0.23421  1.0000
  C   C32       1.0  0.47157  0.58571  0.24878  1.0000
  C   C33       1.0  0.98455  0.87386  0.24138  1.0000
  C   C34       1.0  0.48543  0.37493  0.26157  1.0000
  C   C35       1.0  0.01725  0.12570  0.23436  1.0000
  C   C36       1.0  0.51727  0.62743  0.23881  1.0000
  C   C37       1.0  0.01987  0.87440  0.24359  1.0000
  C   C38       1.0  0.52074  0.37575  0.26602  1.0000
  C   C39       1.0  0.98189  0.12517  0.23255  1.0000
  C   C40       1.0  0.48195  0.62687  0.24315  1.0000
  H   H1        1.0  0.96763  0.84835  0.23504  1.0000
  H   H2        1.0  0.46854  0.34928  0.26060  1.0000
  H   H3        1.0  0.03428  0.15124  0.23424  1.0000
  H   H4        1.0  0.53413  0.65302  0.23375  1.0000
  H   H5        1.0  0.03742  0.84941  0.23983  1.0000
  H   H6        1.0  0.53862  0.35105  0.27033  1.0000
  H   H7        1.0  0.96428  0.15014  0.23063  1.0000
  H   H8        1.0  0.46437  0.65188  0.24276  1.0000
  N   N1        1.0  0.44933  0.50039  0.25654  1.0000
  N   N2        1.0  0.94836  0.99908  0.23635  1.0000
  N   N3        1.0  0.55333  0.50206  0.24577  1.0000
  N   N4        1.0  0.05269  0.00047  0.26072  1.0000
  C   C41       1.0  0.42834  0.46717  0.25886  1.0000
  C   C42       1.0  0.92737  0.96589  0.23345  1.0000
  C   C43       1.0  0.57437  0.53522  0.24232  1.0000
  C   C44       1.0  0.07380  0.03356  0.26196  1.0000
  C   C45       1.0  0.57526  0.46976  0.25271  1.0000
  C   C46       1.0  0.07454  0.96806  0.26630  1.0000
  C   C47       1.0  0.42737  0.53278  0.25885  1.0000
  C   C48       1.0  0.92650  0.03154  0.23214  1.0000
  C   C49       1.0  0.39250  0.47899  0.26436  1.0000
  C   C50       1.0  0.89155  0.97778  0.22523  1.0000
  C   C51       1.0  0.61024  0.52337  0.24695  1.0000
  C   C52       1.0  0.10958  0.02165  0.27149  1.0000
  C   C53       1.0  0.61081  0.48293  0.25332  1.0000
  C   C54       1.0  0.11004  0.98117  0.27405  1.0000
  C   C55       1.0  0.39187  0.51949  0.26455  1.0000
  C   C56       1.0  0.89102  0.01830  0.22422  1.0000
  H   H9        1.0  0.37107  0.45839  0.26880  1.0000
  H   H10       1.0  0.86983  0.95758  0.22025  1.0000
  H   H11       1.0  0.63186  0.54376  0.24691  1.0000
  H   H12       1.0  0.13129  0.04194  0.27405  1.0000
  H   H13       1.0  0.63298  0.46349  0.26022  1.0000
  H   H14       1.0  0.13230  0.96179  0.27993  1.0000
  H   H15       1.0  0.36965  0.53898  0.26771  1.0000
  H   H16       1.0  0.86870  0.03751  0.21745  1.0000
  C   C57       1.0  0.93851  0.92637  0.24019  1.0000
  C   C58       1.0  0.43922  0.42755  0.25554  1.0000
  C   C59       1.0  0.06326  0.07313  0.25089  1.0000
  C   C60       1.0  0.56351  0.57486  0.23930  1.0000
  C   C61       1.0  0.06462  0.92825  0.25870  1.0000
  C   C62       1.0  0.56527  0.42995  0.25958  1.0000
  C   C63       1.0  0.93664  0.07147  0.23452  1.0000
  C   C64       1.0  0.43714  0.57278  0.25419  1.0000
  C   C65       1.0  0.41221  0.39581  0.25212  1.0000
  C   C66       1.0  0.09219  0.89740  0.25537  1.0000
  C   C67       1.0  0.59256  0.39868  0.25364  1.0000
  C   C68       1.0  0.90891  0.10249  0.23817  1.0000
  C   C69       1.0  0.39694  0.38217  0.34315  1.0000
  C   C70       1.0  0.60166  0.38376  0.15687  1.0000
  C   C71       1.0  0.10013  0.87873  0.16221  1.0000
  C   C72       1.0  0.89985  0.12427  0.15025  1.0000
  C   C73       1.0  0.40209  0.37828  0.15916  1.0000
  C   C74       1.0  0.89153  0.11114  0.33011  1.0000
  C   C75       1.0  0.60843  0.38252  0.34105  1.0000
  C   C76       1.0  0.11010  0.88576  0.34405  1.0000
  H   H17       1.0  0.40528  0.39506  0.41539  1.0000
  H   H18       1.0  0.08694  0.88819  0.09251  1.0000
  H   H19       1.0  0.58924  0.39620  0.08899  1.0000
  H   H20       1.0  0.91255  0.11720  0.07827  1.0000
  H   H21       1.0  0.41396  0.38812  0.08774  1.0000
  H   H22       1.0  0.89758  0.09428  0.39927  1.0000
  H   H23       1.0  0.10436  0.90031  0.41641  1.0000
  H   H24       1.0  0.60095  0.39346  0.41623  1.0000
  C   C77       1.0  0.37170  0.35251  0.34228  1.0000
  C   C78       1.0  0.12424  0.84814  0.15821  1.0000
  C   C79       1.0  0.62554  0.35317  0.14758  1.0000
  C   C80       1.0  0.87492  0.15428  0.15319  1.0000
  C   C81       1.0  0.37747  0.34808  0.15765  1.0000
  C   C82       1.0  0.86695  0.14136  0.33439  1.0000
  C   C83       1.0  0.13483  0.85561  0.34064  1.0000
  C   C84       1.0  0.63340  0.35274  0.33233  1.0000
  H   H25       1.0  0.36065  0.34135  0.41347  1.0000
  H   H26       1.0  0.13014  0.83320  0.08661  1.0000
  H   H27       1.0  0.63216  0.34094  0.07311  1.0000
  H   H28       1.0  0.86841  0.17102  0.08428  1.0000
  H   H29       1.0  0.36964  0.33408  0.08636  1.0000
  H   H30       1.0  0.85376  0.14837  0.40568  1.0000
  H   H31       1.0  0.14840  0.84616  0.40966  1.0000
  H   H32       1.0  0.64536  0.33996  0.40057  1.0000
  C   C85       1.0  0.36146  0.33552  0.24891  1.0000
  C   C86       1.0  0.14162  0.83629  0.24772  1.0000
  C   C87       1.0  0.64227  0.33788  0.23511  1.0000
  C   C88       1.0  0.85856  0.16347  0.24613  1.0000
  F   F1        1.0  0.18051  0.72597  0.25243  1.0000
  F   F2        1.0  0.68369  0.22454  0.23197  1.0000
  F   F3        1.0  0.81753  0.27714  0.25795  1.0000
  F   F4        1.0  0.31613  0.77168  0.24777  1.0000
  F   F5        1.0  0.81915  0.73007  0.22721  1.0000
  F   F6        1.0  0.32086  0.22775  0.26784  1.0000
  F   F7        1.0  0.18547  0.27385  0.24778  1.0000
  F   F8        1.0  0.68368  0.77383  0.26717  1.0000
  Cu  Cu1       1.0  0.50132  0.50128  0.25236  1.0000
  Cu  Cu2       1.0  0.00061  0.99984  0.24682  1.0000
  C   C89       1.0  0.30053  0.68661  0.26535  1.0000
  H   H33       1.0  0.29119  0.65831  0.29703  1.0000
  C   C90       1.0  0.80409  0.19152  0.22563  1.0000
  H   H34       1.0  0.79444  0.16369  0.19292  1.0000
  C   C91       1.0  0.69612  0.31020  0.26538  1.0000
  H   H35       1.0  0.70370  0.33647  0.30970  1.0000
  C   C92       1.0  0.19681  0.81041  0.24556  1.0000
  H   H36       1.0  0.20747  0.84055  0.24684  1.0000
  C   C93       1.0  0.69929  0.68947  0.24574  1.0000
  H   H37       1.0  0.70848  0.66105  0.21553  1.0000
  C   C94       1.0  0.20054  0.18868  0.24257  1.0000
  H   H38       1.0  0.21029  0.16104  0.20912  1.0000
  C   C95       1.0  0.30572  0.31142  0.27038  1.0000
  H   H39       1.0  0.29671  0.34092  0.29307  1.0000
  C   C96       1.0  0.80306  0.81415  0.23040  1.0000
  H   H40       1.0  0.79508  0.84293  0.19783  1.0000
  F   F9        1.0  0.22923  0.67052  0.25835  1.0000
  F   F10       1.0  0.73439  0.17271  0.22199  1.0000
  F   F11       1.0  0.76565  0.32908  0.28264  1.0000
  F   F12       1.0  0.26745  0.82586  0.23310  1.0000
  F   F13       1.0  0.77074  0.67441  0.23220  1.0000
  F   F14       1.0  0.27096  0.17236  0.25690  1.0000
  F   F15       1.0  0.23446  0.32872  0.26787  1.0000
  F   F16       1.0  0.73101  0.82948  0.24247  1.0000
  N   N5        1.0  0.33171  0.69190  0.23420  1.0000
  N   N6        1.0  0.83552  0.19569  0.25553  1.0000
  N   N7        1.0  0.66650  0.30738  0.22057  1.0000
  N   N8        1.0  0.16410  0.80368  0.24368  1.0000
  N   N9        1.0  0.66813  0.69420  0.27849  1.0000
  N   N10       1.0  0.16925  0.19243  0.27451  1.0000
  N   N11       1.0  0.33716  0.30468  0.24341  1.0000
  N   N12       1.0  0.83360  0.80788  0.26672  1.0000
  N   N13       1.0  0.00141  0.93973  0.25070  1.0000
  N   N14       1.0  0.50203  0.44103  0.26037  1.0000
  N   N15       1.0  0.00021  0.05983  0.23702  1.0000
  N   N16       1.0  0.50050  0.56157  0.24803  1.0000
  C   C97       1.0  0.27309  0.71717  0.76051  1.0000
  C   C98       1.0  0.77748  0.22060  0.75620  1.0000
  C   C99       1.0  0.72533  0.28172  0.74227  1.0000
  C   C100      1.0  0.22227  0.77908  0.76961  1.0000
  C   C101      1.0  0.72177  0.72059  0.74653  1.0000
  C   C102      1.0  0.22088  0.22313  0.73332  1.0000
  C   C103      1.0  0.27454  0.28195  0.73706  1.0000
  C   C104      1.0  0.77477  0.78089  0.75193  1.0000
  C   C105      1.0  0.21253  0.73872  0.77201  1.0000
  C   C106      1.0  0.71655  0.24128  0.75170  1.0000
  C   C107      1.0  0.78633  0.26123  0.75242  1.0000
  C   C108      1.0  0.28271  0.75740  0.75791  1.0000
  C   C109      1.0  0.78303  0.74023  0.74654  1.0000
  C   C110      1.0  0.28236  0.24127  0.72967  1.0000
  C   C111      1.0  0.21313  0.26379  0.74130  1.0000
  C   C112      1.0  0.71349  0.76132  0.75408  1.0000
  C   C113      1.0  0.23749  0.70897  0.76736  1.0000
  C   C114      1.0  0.74183  0.21194  0.75503  1.0000
  C   C115      1.0  0.76099  0.29030  0.74193  1.0000
  C   C116      1.0  0.25794  0.78728  0.76275  1.0000
  C   C117      1.0  0.75730  0.71134  0.74278  1.0000
  C   C118      1.0  0.25611  0.21310  0.72692  1.0000
  C   C119      1.0  0.23928  0.29219  0.74139  1.0000
  C   C120      1.0  0.73925  0.79028  0.75412  1.0000
  C   C121      1.0  0.96988  0.91550  0.75237  1.0000
  C   C122      1.0  0.47053  0.41559  0.74769  1.0000
  C   C123      1.0  0.03005  0.08370  0.74959  1.0000
  C   C124      1.0  0.52684  0.58398  0.75244  1.0000
  C   C125      1.0  0.02697  0.91474  0.75215  1.0000
  C   C126      1.0  0.52764  0.41521  0.73641  1.0000
  C   C127      1.0  0.97294  0.08490  0.75456  1.0000
  C   C128      1.0  0.46971  0.58408  0.74174  1.0000
  C   C129      1.0  0.98040  0.87436  0.75545  1.0000
  C   C130      1.0  0.48120  0.37456  0.74681  1.0000
  C   C131      1.0  0.01990  0.12485  0.75621  1.0000
  C   C132      1.0  0.51593  0.62494  0.75180  1.0000
  C   C133      1.0  0.01571  0.87390  0.75535  1.0000
  C   C134      1.0  0.51646  0.37432  0.73965  1.0000
  C   C135      1.0  0.98459  0.12563  0.75908  1.0000
  C   C136      1.0  0.48066  0.62502  0.74441  1.0000
  H   H41       1.0  0.96297  0.84924  0.75628  1.0000
  H   H42       1.0  0.46352  0.34966  0.75139  1.0000
  H   H43       1.0  0.03759  0.14978  0.75693  1.0000
  H   H44       1.0  0.53346  0.64995  0.75530  1.0000
  H   H45       1.0  0.03286  0.84851  0.75478  1.0000
  H   H46       1.0  0.53361  0.34896  0.73777  1.0000
  H   H47       1.0  0.96782  0.15131  0.76297  1.0000
  H   H48       1.0  0.46338  0.65027  0.74168  1.0000
  N   N17       1.0  0.44621  0.49972  0.74057  1.0000
  N   N18       1.0  0.94777  0.00062  0.74111  1.0000
  N   N19       1.0  0.55111  0.49978  0.73845  1.0000
  N   N20       1.0  0.05208  0.99904  0.73946  1.0000
  C   C137      1.0  0.42492  0.46708  0.75039  1.0000
  C   C138      1.0  0.92568  0.96828  0.74119  1.0000
  C   C139      1.0  0.57244  0.53248  0.74775  1.0000
  C   C140      1.0  0.07421  0.03121  0.73421  1.0000
  C   C141      1.0  0.57270  0.46710  0.73683  1.0000
  C   C142      1.0  0.07283  0.96577  0.73771  1.0000
  C   C143      1.0  0.42466  0.53226  0.74004  1.0000
  C   C144      1.0  0.92691  0.03391  0.74345  1.0000
  C   C145      1.0  0.38912  0.47940  0.75561  1.0000
  C   C146      1.0  0.89020  0.98167  0.74144  1.0000
  C   C147      1.0  0.60824  0.52007  0.75112  1.0000
  C   C148      1.0  0.10954  0.01772  0.72531  1.0000
  C   C149      1.0  0.60839  0.47969  0.74319  1.0000
  C   C150      1.0  0.10869  0.97721  0.72701  1.0000
  C   C151      1.0  0.38902  0.51980  0.74904  1.0000
  C   C152      1.0  0.89093  0.02218  0.74312  1.0000
  H   H49       1.0  0.36716  0.45968  0.76417  1.0000
  H   H50       1.0  0.86786  0.96226  0.74250  1.0000
  H   H51       1.0  0.63017  0.53978  0.76009  1.0000
  H   H52       1.0  0.13186  0.03699  0.71891  1.0000
  H   H53       1.0  0.63042  0.45988  0.74354  1.0000
  H   H54       1.0  0.13004  0.95653  0.72131  1.0000
  H   H55       1.0  0.36717  0.53977  0.75356  1.0000
  H   H56       1.0  0.86933  0.04261  0.74591  1.0000
  C   C153      1.0  0.93545  0.92827  0.74719  1.0000
  C   C154      1.0  0.43598  0.42767  0.75412  1.0000
  C   C155      1.0  0.06441  0.07103  0.74128  1.0000
  C   C156      1.0  0.56154  0.57199  0.75422  1.0000
  C   C157      1.0  0.06160  0.92648  0.74720  1.0000
  C   C158      1.0  0.56234  0.42730  0.73421  1.0000
  C   C159      1.0  0.93812  0.07339  0.75041  1.0000
  C   C160      1.0  0.43513  0.57190  0.73668  1.0000
  C   C161      1.0  0.58892  0.60326  0.75896  1.0000
  C   C162      1.0  0.08879  0.89522  0.75139  1.0000
  C   C163      1.0  0.91118  0.10500  0.75344  1.0000
  C   C164      1.0  0.40700  0.60217  0.73474  1.0000
  C   C165      1.0  0.59846  0.62111  0.85197  1.0000
  C   C166      1.0  0.09851  0.87511  0.66205  1.0000
  C   C167      1.0  0.39131  0.61388  0.64233  1.0000
  C   C168      1.0  0.89102  0.11366  0.66661  1.0000
  C   C169      1.0  0.60577  0.61541  0.66886  1.0000
  C   C170      1.0  0.39460  0.61809  0.82668  1.0000
  C   C171      1.0  0.90513  0.12669  0.84342  1.0000
  C   C172      1.0  0.10561  0.88610  0.84379  1.0000
  H   H57       1.0  0.58569  0.61198  0.92263  1.0000
  H   H58       1.0  0.08556  0.88244  0.59025  1.0000
  H   H59       1.0  0.89565  0.09726  0.59629  1.0000
  H   H60       1.0  0.39979  0.60067  0.57065  1.0000
  H   H61       1.0  0.59800  0.60224  0.59637  1.0000
  H   H62       1.0  0.92019  0.11978  0.91173  1.0000
  H   H63       1.0  0.40636  0.60838  0.89836  1.0000
  H   H64       1.0  0.09792  0.90143  0.91348  1.0000
  C   C173      1.0  0.62361  0.65071  0.85459  1.0000
  C   C174      1.0  0.12403  0.84603  0.66485  1.0000
  C   C175      1.0  0.86516  0.14254  0.66942  1.0000
  C   C176      1.0  0.36528  0.64242  0.64157  1.0000
  C   C177      1.0  0.63178  0.64420  0.67090  1.0000
  C   C178      1.0  0.88010  0.15629  0.84646  1.0000
  C   C179      1.0  0.36762  0.64560  0.82719  1.0000
  C   C180      1.0  0.13196  0.85774  0.84701  1.0000
  H   H65       1.0  0.63064  0.66524  0.92597  1.0000
  H   H66       1.0  0.13134  0.83009  0.59592  1.0000
  H   H67       1.0  0.85009  0.14956  0.60120  1.0000
  H   H68       1.0  0.35350  0.65258  0.57048  1.0000
  H   H69       1.0  0.64423  0.65403  0.60037  1.0000
  H   H70       1.0  0.87558  0.17323  0.91588  1.0000
  H   H71       1.0  0.35829  0.65795  0.89891  1.0000
  H   H72       1.0  0.14498  0.85075  0.91881  1.0000
  C   C181      1.0  0.64089  0.66215  0.76419  1.0000
  C   C182      1.0  0.14120  0.83731  0.75745  1.0000
  C   C183      1.0  0.85932  0.16396  0.76005  1.0000
  C   C184      1.0  0.35331  0.65866  0.73390  1.0000
  F   F17       1.0  0.17905  0.72811  0.77845  1.0000
  F   F18       1.0  0.68339  0.22986  0.75679  1.0000
  F   F19       1.0  0.81936  0.27359  0.75735  1.0000
  F   F20       1.0  0.31610  0.76797  0.75245  1.0000
  F   F21       1.0  0.81612  0.72819  0.74242  1.0000
  F   F22       1.0  0.31515  0.22813  0.72743  1.0000
  F   F23       1.0  0.18014  0.27584  0.74712  1.0000
  F   F24       1.0  0.68055  0.77373  0.76235  1.0000
  Cu  Cu3       1.0  0.49868  0.49978  0.74031  1.0000
  Cu  Cu4       1.0  0.99989  0.99980  0.74563  1.0000
  C   C185      1.0  0.29806  0.68448  0.75869  1.0000
  H   H73       1.0  0.28829  0.65522  0.78160  1.0000
  C   C186      1.0  0.80263  0.18811  0.75749  1.0000
  H   H74       1.0  0.79169  0.15806  0.75294  1.0000
  C   C187      1.0  0.69993  0.31394  0.73327  1.0000
  H   H75       1.0  0.71058  0.34338  0.71519  1.0000
  C   C188      1.0  0.19744  0.81194  0.77107  1.0000
  H   H76       1.0  0.20854  0.84168  0.77966  1.0000
  C   C189      1.0  0.69644  0.68814  0.74386  1.0000
  H   H77       1.0  0.70661  0.65893  0.72204  1.0000
  C   C190      1.0  0.19457  0.19178  0.73029  1.0000
  H   H78       1.0  0.20208  0.16474  0.68942  1.0000
  C   C191      1.0  0.30025  0.31369  0.74440  1.0000
  H   H79       1.0  0.28990  0.34344  0.75894  1.0000
  C   C192      1.0  0.80068  0.81270  0.75093  1.0000
  H   H80       1.0  0.79129  0.84169  0.72418  1.0000
  F   F25       1.0  0.22725  0.67057  0.76812  1.0000
  F   F26       1.0  0.73104  0.17366  0.75781  1.0000
  F   F27       1.0  0.77204  0.32831  0.73293  1.0000
  F   F28       1.0  0.26902  0.82541  0.75774  1.0000
  F   F29       1.0  0.76731  0.67279  0.73732  1.0000
  F   F30       1.0  0.26561  0.17452  0.72229  1.0000
  F   F31       1.0  0.23073  0.33115  0.74751  1.0000
  F   F32       1.0  0.72927  0.82890  0.75757  1.0000
  N   N21       1.0  0.32955  0.69004  0.72997  1.0000
  N   N22       1.0  0.83522  0.19487  0.76506  1.0000
  N   N23       1.0  0.66745  0.30774  0.74666  1.0000
  N   N24       1.0  0.16490  0.80584  0.75821  1.0000
  N   N25       1.0  0.66467  0.69348  0.76976  1.0000
  N   N26       1.0  0.16511  0.19491  0.77563  1.0000
  N   N27       1.0  0.33273  0.30713  0.73366  1.0000
  N   N28       1.0  0.83205  0.80720  0.78151  1.0000
  N   N29       1.0  0.99869  0.93974  0.75080  1.0000
  N   N30       1.0  0.49915  0.44005  0.74082  1.0000
  N   N31       1.0  0.00105  0.05968  0.74997  1.0000
  N   N32       1.0  0.49827  0.55939  0.74706  1.0000
  C  Sn1       1.0  0.11907  0.11680  0.15833  1.0000
  C   C193      1.0  0.10147  0.09889  0.23999  1.0000
  C  Sn2       1.0  0.10337  0.11495  0.33843  1.0000
  C  Sn3       1.0  0.12328  0.14964  0.35560  1.0000
  C   C194      1.0  0.14087  0.16754  0.27397  1.0000
  C  Sn4       1.0  0.13898  0.15150  0.17551  1.0000
  O  Te1       1.0  0.11680  0.10024  0.06057  1.0000
  O  Te2       1.0  0.08555  0.09651  0.41886  1.0000
  O  Te3       1.0  0.12554  0.16620  0.45347  1.0000
  O  Te4       1.0  0.15678  0.16992  0.09511  1.0000
  Mg  Mg1       1.0  0.09664  0.13030  0.53824  1.0000
  Mg  Mg2       1.0  0.14589  0.13402  0.97569  1.0000
  C  Sn5       1.0  0.13057  0.13052  0.85641  1.0000
  C   C195      1.0  0.14498  0.15346  0.77765  1.0000
  C  Sn6       1.0  0.13045  0.15317  0.67948  1.0000
  C  Sn7       1.0  0.10088  0.12947  0.65962  1.0000
  C   C196      1.0  0.08648  0.10655  0.73836  1.0000
  C  Sn8       1.0  0.10100  0.10682  0.83656  1.0000
  O  Te5       1.0  0.14552  0.13127  0.95397  1.0000
  O  Te6       1.0  0.14532  0.17635  0.60197  1.0000
  O  Te7       1.0  0.08593  0.12874  0.56197  1.0000
  O  Te8       1.0  0.08614  0.08367  0.91404  1.0000
  Mg  Mg3       1.0  0.11556  0.16540  0.48168  1.0000
  Mg  Mg4       1.0  0.11568  0.09676  0.03436  1.0000
  C  Sn9       1.0  0.87882  0.88831  0.16001  1.0000
  C   C197      1.0  0.90187  0.89966  0.23714  1.0000
  C  Sn10      1.0  0.90610  0.87610  0.32478  1.0000
  C  Sn11      1.0  0.88691  0.84045  0.33553  1.0000
  C   C198      1.0  0.86388  0.82911  0.25843  1.0000
  C  Sn12      1.0  0.85963  0.85265  0.17076  1.0000
  O  Te9       1.0  0.87501  0.91231  0.07304  1.0000
  O  Te10      1.0  0.92929  0.88807  0.40088  1.0000
  O  Te11      1.0  0.89074  0.81645  0.42259  1.0000
  O  Te12      1.0  0.83646  0.84070  0.09469  1.0000
  Mg  Mg5       1.0  0.92549  0.84535  0.50512  1.0000
  Mg  Mg6       1.0  0.84045  0.88124  0.99039  1.0000
  C  Sn13      1.0  0.38363  0.35251  0.64672  1.0000
  C   C199      1.0  0.36617  0.33388  0.72758  1.0000
  C  Sn14      1.0  0.36732  0.34979  0.82627  1.0000
  C  Sn15      1.0  0.38628  0.38509  0.84451  1.0000
  C   C200      1.0  0.40372  0.40371  0.76368  1.0000
  C  Sn16      1.0  0.40260  0.38781  0.66497  1.0000
  O  Te13      1.0  0.38213  0.33608  0.54868  1.0000
  O  Te14      1.0  0.34967  0.33062  0.90589  1.0000
  O  Te15      1.0  0.38777  0.40152  0.94266  1.0000
  O  Te16      1.0  0.42023  0.40697  0.58538  1.0000
  Mg  Mg7       1.0  0.35927  0.36667  0.02604  1.0000
  Mg  Mg8       1.0  0.41043  0.37310  0.46519  1.0000
  C  Sn17      1.0  0.59930  0.36270  0.64379  1.0000
  C   C201      1.0  0.58640  0.38496  0.72542  1.0000
  C  Sn18      1.0  0.60462  0.38705  0.81783  1.0000
  C  Sn19      1.0  0.63643  0.36649  0.82887  1.0000
  C   C202      1.0  0.64932  0.34426  0.74726  1.0000
  C  Sn20      1.0  0.63110  0.34214  0.65482  1.0000
  O  Te17      1.0  0.58064  0.36103  0.55210  1.0000
  O  Te18      1.0  0.59120  0.40948  0.89836  1.0000
  O  Te19      1.0  0.65508  0.36818  0.92065  1.0000
  O  Te20      1.0  0.64452  0.31974  0.57432  1.0000
  Mg  Mg9       1.0  0.62596  0.40479  0.00815  1.0000
  Mg  Mg10      1.0  0.60959  0.32657  0.46448  1.0000
  C  Sn21      1.0  0.90533  0.86161  0.84540  1.0000
  C   C203      1.0  0.91263  0.88601  0.76110  1.0000
  C  Sn22      1.0  0.88948  0.88851  0.67896  1.0000
  C  Sn23      1.0  0.85838  0.86616  0.68115  1.0000
  C   C204      1.0  0.85109  0.84178  0.76541  1.0000
  C  Sn24      1.0  0.87423  0.83926  0.84759  1.0000
  O  Te21      1.0  0.92885  0.85957  0.92667  1.0000
  O  Te22      1.0  0.89734  0.91310  0.59551  1.0000
  O  Te23      1.0  0.83486  0.86821  0.59978  1.0000
  O  Te24      1.0  0.86638  0.81470  0.93101  1.0000
  Mg  Mg11      1.0  0.85712  0.90591  0.50330  1.0000
  Mg  Mg12      1.0  0.90639  0.82402  0.02327  1.0000
  C  Sn25      1.0  0.38329  0.61790  0.34962  1.0000
  C   C205      1.0  0.39955  0.59916  0.26732  1.0000
  C  Sn26      1.0  0.39626  0.61437  0.16787  1.0000
  C  Sn27      1.0  0.37633  0.64907  0.15031  1.0000
  C   C206      1.0  0.36009  0.66779  0.23258  1.0000
  C  Sn28      1.0  0.36336  0.65259  0.33206  1.0000
  O  Te25      1.0  0.38693  0.60217  0.44840  1.0000
  O  Te26      1.0  0.41274  0.59511  0.08681  1.0000
  O  Te27      1.0  0.37270  0.66479  0.05143  1.0000
  O  Te28      1.0  0.34690  0.67184  0.41309  1.0000
  Mg  Mg13      1.0  0.40027  0.62580  0.96610  1.0000
  Mg  Mg14      1.0  0.35955  0.63904  0.53383  1.0000
  C  Sn29      1.0  0.62234  0.61705  0.15775  1.0000
  C   C207      1.0  0.60114  0.60100  0.23428  1.0000
  C  Sn30      1.0  0.59868  0.61930  0.32991  1.0000
  C  Sn31      1.0  0.61780  0.65439  0.34945  1.0000
  C   C208      1.0  0.63898  0.67042  0.27295  1.0000
  C  Sn32      1.0  0.64146  0.65214  0.17729  1.0000
  O  Te29      1.0  0.62441  0.59826  0.06271  1.0000
  O  Te30      1.0  0.57732  0.60269  0.40522  1.0000
  O  Te31      1.0  0.61572  0.67317  0.44459  1.0000
  O  Te32      1.0  0.66280  0.66873  0.10200  1.0000
  Mg  Mg15      1.0  0.58310  0.63920  0.52249  1.0000
  Mg  Mg16      1.0  0.65722  0.63011  0.98470  1.0000
