data_image0
_chemical_formula_structural       C16H8N4C16H8C8Cu2CHCHCHCHCHCHCHCHN12C16H8N4C16H8C8Cu2CHCHCHCHCHCHCHCHN12C2Sn2C2HTe2HMgC2Sn2C2HTe2HMgC2Sn2C2HTe2HMgC2Sn2C2HTe2HMgC2Sn2C2HTe2HMgC2Sn2C2HTe2HMgC2Sn2C2HTe2HMgC2Sn2C2HTe2HMgC2Sn2C2HTe2HMgC2Sn2C2HTe2HMgC2Sn2C2HTe2HMgC2Sn2C2HTe2HMgC2Sn2C2HTe2HMgC2Sn2C2HTe2HMgC2Sn2C2HTe2HMgC2Sn2C2HTe2HMgC2Sn2C2HTe2HMgC2Sn2C2HTe2HMgC2Sn2C2HTe2HMgC2Sn2C2HTe2HMgC2Sn2C2HTe2HMgC2Sn2C2HTe2HMgC2Sn2C2HTe2HMgC2Sn2C2HTe2HMg
_chemical_formula_sum              "C192 H96 N32 Cu4 Sn48 Te48 Mg24"
_cell_length_a       38.5308
_cell_length_b       33.6665
_cell_length_c       9.87309
_cell_angle_alpha    76.1457
_cell_angle_beta     92.7529
_cell_angle_gamma    90.0191

_symmetry_space_group_name_H-M    'P1'
_space_group_IT_number       1

loop_
  _space_group_symop_operation_xyz
  'x, y, z'

loop_
  _atom_site_type_symbol
  _atom_site_label
  _atom_site_symmetry_multiplicity
  _atom_site_fract_x
  _atom_site_fract_y
  _atom_site_fract_z
  _atom_site_occupancy
  C   C1        1.0  0.97315  0.91479  0.25687  1.0000
  C   C2        1.0  0.47474  0.41492  0.26071  1.0000
  C   C3        1.0  0.03056  0.08535  0.23898  1.0000
  C   C4        1.0  0.53049  0.58641  0.23073  1.0000
  C   C5        1.0  0.03044  0.91490  0.24938  1.0000
  C   C6        1.0  0.53213  0.41531  0.26517  1.0000
  C   C7        1.0  0.97321  0.08509  0.24307  1.0000
  C   C8        1.0  0.47313  0.58571  0.23464  1.0000
  C   C9        1.0  0.98399  0.87340  0.26389  1.0000
  C   C10       1.0  0.48634  0.37286  0.29083  1.0000
  C   C11       1.0  0.01917  0.12717  0.22164  1.0000
  C   C12       1.0  0.51881  0.62847  0.20236  1.0000
  C   C13       1.0  0.01923  0.87324  0.26272  1.0000
  C   C14       1.0  0.52167  0.37315  0.29371  1.0000
  C   C15       1.0  0.98389  0.12699  0.22508  1.0000
  C   C16       1.0  0.48343  0.62798  0.20542  1.0000
  H   H1        1.0  0.96666  0.84776  0.26891  1.0000
  H   H2        1.0  0.46956  0.34646  0.31046  1.0000
  H   H3        1.0  0.03613  0.15338  0.20681  1.0000
  H   H4        1.0  0.53544  0.65493  0.18166  1.0000
  H   H5        1.0  0.03626  0.84711  0.27077  1.0000
  H   H6        1.0  0.53936  0.34717  0.31491  1.0000
  H   H7        1.0  0.96646  0.15288  0.21545  1.0000
  H   H8        1.0  0.46579  0.65392  0.18691  1.0000
  N   N1        1.0  0.44989  0.50013  0.24713  1.0000
  N   N2        1.0  0.94929  0.00016  0.24716  1.0000
  N   N3        1.0  0.55549  0.50098  0.24816  1.0000
  N   N4        1.0  0.05440  0.00025  0.24152  1.0000
  C   C17       1.0  0.42849  0.46742  0.24148  1.0000
  C   C18       1.0  0.92782  0.96683  0.25545  1.0000
  C   C19       1.0  0.57683  0.53402  0.24911  1.0000
  C   C20       1.0  0.07608  0.03297  0.24401  1.0000
  C   C21       1.0  0.57732  0.46823  0.24934  1.0000
  C   C22       1.0  0.07588  0.96765  0.23668  1.0000
  C   C23       1.0  0.42811  0.53250  0.25177  1.0000
  C   C24       1.0  0.92784  0.03262  0.25224  1.0000
  C   C25       1.0  0.39262  0.47998  0.23933  1.0000
  C   C26       1.0  0.89225  0.97857  0.26692  1.0000
  C   C27       1.0  0.61280  0.52140  0.25405  1.0000
  C   C28       1.0  0.11183  0.02023  0.24348  1.0000
  C   C29       1.0  0.61303  0.48122  0.24830  1.0000
  C   C30       1.0  0.11162  0.98051  0.23342  1.0000
  C   C31       1.0  0.39245  0.51932  0.25276  1.0000
  C   C32       1.0  0.89231  0.01931  0.26534  1.0000
  H   H9        1.0  0.37032  0.46118  0.22959  1.0000
  H   H10       1.0  0.87041  0.95816  0.27607  1.0000
  H   H11       1.0  0.63498  0.54050  0.26112  1.0000
  H   H12       1.0  0.13422  0.03909  0.25020  1.0000
  H   H13       1.0  0.63531  0.46219  0.24457  1.0000
  H   H14       1.0  0.13371  0.96156  0.22565  1.0000
  H   H15       1.0  0.37006  0.53776  0.26133  1.0000
  H   H16       1.0  0.87065  0.03859  0.27548  1.0000
  C   C33       1.0  0.93839  0.92678  0.25924  1.0000
  C   C34       1.0  0.43956  0.42720  0.24720  1.0000
  C   C35       1.0  0.06564  0.07306  0.24305  1.0000
  C   C36       1.0  0.56570  0.57430  0.24147  1.0000
  C   C37       1.0  0.06531  0.92741  0.23976  1.0000
  C   C38       1.0  0.56698  0.42786  0.25602  1.0000
  C   C39       1.0  0.93834  0.07272  0.24893  1.0000
  C   C40       1.0  0.43841  0.57280  0.24801  1.0000
  Cu  Cu1       1.0  0.50266  0.50061  0.24658  1.0000
  Cu  Cu2       1.0  0.00188  0.00009  0.24688  1.0000
  C   C41       1.0  0.30401  0.68808  0.25596  1.0000
  H   H17       1.0  0.29463  0.65901  0.23606  1.0000
  C   C42       1.0  0.80639  0.19513  0.21651  1.0000
  H   H18       1.0  0.79722  0.17031  0.16824  1.0000
  C   C43       1.0  0.70012  0.30923  0.26373  1.0000
  H   H19       1.0  0.70915  0.33438  0.30944  1.0000
  C   C44       1.0  0.19793  0.80696  0.25892  1.0000
  H   H20       1.0  0.20731  0.83352  0.29654  1.0000
  C   C45       1.0  0.69701  0.69470  0.23794  1.0000
  H   H21       1.0  0.70659  0.66544  0.22196  1.0000
  C   C46       1.0  0.20044  0.19047  0.22527  1.0000
  H   H22       1.0  0.20922  0.16287  0.19479  1.0000
  C   C47       1.0  0.30698  0.30687  0.26184  1.0000
  H   H23       1.0  0.29841  0.33249  0.30391  1.0000
  C   C48       1.0  0.80201  0.81508  0.24235  1.0000
  H   H24       1.0  0.79281  0.84704  0.22536  1.0000
  N   N5        1.0  0.33671  0.69383  0.28091  1.0000
  N   N6        1.0  0.83806  0.19601  0.26835  1.0000
  N   N7        1.0  0.66788  0.30610  0.22469  1.0000
  N   N8        1.0  0.16561  0.80311  0.22374  1.0000
  N   N9        1.0  0.66470  0.70010  0.25956  1.0000
  N   N10       1.0  0.16863  0.19500  0.25758  1.0000
  N   N11       1.0  0.33840  0.30383  0.22408  1.0000
  N   N12       1.0  0.83422  0.80533  0.26868  1.0000
  N   N13       1.0  0.00188  0.93987  0.24849  1.0000
  N   N14       1.0  0.50312  0.44048  0.24988  1.0000
  N   N15       1.0  0.00200  0.06001  0.24930  1.0000
  N   N16       1.0  0.50215  0.56074  0.24478  1.0000
  C   C49       1.0  0.96971  0.91452  0.75510  1.0000
  C   C50       1.0  0.46947  0.41462  0.76508  1.0000
  C   C51       1.0  0.02674  0.08506  0.71280  1.0000
  C   C52       1.0  0.52719  0.58590  0.73188  1.0000
  C   C53       1.0  0.02685  0.91500  0.73923  1.0000
  C   C54       1.0  0.52684  0.41466  0.76109  1.0000
  C   C55       1.0  0.96944  0.08474  0.71892  1.0000
  C   C56       1.0  0.46985  0.58594  0.73411  1.0000
  C   C57       1.0  0.97984  0.87464  0.74001  1.0000
  C   C58       1.0  0.48077  0.37256  0.78977  1.0000
  C   C59       1.0  0.01495  0.12678  0.66092  1.0000
  C   C60       1.0  0.51580  0.62810  0.70049  1.0000
  C   C61       1.0  0.01510  0.87460  0.73365  1.0000
  C   C62       1.0  0.51602  0.37261  0.78667  1.0000
  C   C63       1.0  0.97946  0.12657  0.66336  1.0000
  C   C64       1.0  0.48046  0.62811  0.70264  1.0000
  H   H25       1.0  0.96222  0.84969  0.73805  1.0000
  H   H26       1.0  0.46377  0.34632  0.81056  1.0000
  H   H27       1.0  0.03174  0.15259  0.62461  1.0000
  H   H28       1.0  0.53275  0.65432  0.67752  1.0000
  H   H29       1.0  0.03176  0.84930  0.72763  1.0000
  H   H30       1.0  0.53334  0.34628  0.80432  1.0000
  H   H31       1.0  0.96171  0.15233  0.62885  1.0000
  H   H32       1.0  0.46295  0.65426  0.68248  1.0000
  N   N17       1.0  0.44580  0.50015  0.75304  1.0000
  N   N18       1.0  0.94701  0.99817  0.77076  1.0000
  N   N19       1.0  0.55102  0.50015  0.74981  1.0000
  N   N20       1.0  0.05101  0.99898  0.74939  1.0000
  C   C65       1.0  0.42396  0.46753  0.75156  1.0000
  C   C66       1.0  0.92604  0.96411  0.79222  1.0000
  C   C67       1.0  0.57281  0.53278  0.75245  1.0000
  C   C68       1.0  0.07245  0.03139  0.75835  1.0000
  C   C69       1.0  0.57240  0.46737  0.74644  1.0000
  C   C70       1.0  0.07264  0.96590  0.75301  1.0000
  C   C71       1.0  0.42446  0.53307  0.75513  1.0000
  C   C72       1.0  0.92655  0.03002  0.78939  1.0000
  C   C73       1.0  0.38823  0.48067  0.74963  1.0000
  C   C74       1.0  0.89232  0.97433  0.83205  1.0000
  C   C75       1.0  0.60852  0.51974  0.75442  1.0000
  C   C76       1.0  0.10810  0.01748  0.77690  1.0000
  C   C77       1.0  0.60823  0.47994  0.74465  1.0000
  C   C78       1.0  0.10838  0.97781  0.76701  1.0000
  C   C79       1.0  0.38865  0.52060  0.75808  1.0000
  C   C80       1.0  0.89300  0.01474  0.83470  1.0000
  H   H33       1.0  0.36576  0.46193  0.74410  1.0000
  H   H34       1.0  0.87108  0.95313  0.85470  1.0000
  H   H35       1.0  0.63092  0.53851  0.76160  1.0000
  H   H36       1.0  0.13009  0.03594  0.79370  1.0000
  H   H37       1.0  0.63032  0.46090  0.73840  1.0000
  H   H38       1.0  0.13089  0.95852  0.76895  1.0000
  H   H39       1.0  0.36679  0.53990  0.76492  1.0000
  H   H40       1.0  0.87286  0.03257  0.86580  1.0000
  C   C81       1.0  0.93565  0.92532  0.77681  1.0000
  C   C82       1.0  0.43437  0.42710  0.75747  1.0000
  C   C83       1.0  0.06187  0.07248  0.73728  1.0000
  C   C84       1.0  0.56230  0.57332  0.74502  1.0000
  C   C85       1.0  0.06192  0.92678  0.74172  1.0000
  C   C86       1.0  0.56173  0.42714  0.75071  1.0000
  C   C87       1.0  0.93564  0.07164  0.75541  1.0000
  C   C88       1.0  0.43511  0.57338  0.74764  1.0000
  Cu  Cu3       1.0  0.49839  0.50008  0.75200  1.0000
  Cu  Cu4       1.0  0.99895  0.99875  0.75393  1.0000
  C   C89       1.0  0.30122  0.68966  0.74829  1.0000
  H   H41       1.0  0.29180  0.66146  0.72152  1.0000
  C   C90       1.0  0.79999  0.18850  0.75145  1.0000
  H   H42       1.0  0.78912  0.15943  0.73713  1.0000
  C   C91       1.0  0.69609  0.31068  0.75140  1.0000
  H   H43       1.0  0.70569  0.33872  0.77883  1.0000
  C   C92       1.0  0.19578  0.80843  0.76147  1.0000
  H   H44       1.0  0.20457  0.83418  0.80485  1.0000
  C   C93       1.0  0.69472  0.69235  0.75190  1.0000
  H   H45       1.0  0.70460  0.66276  0.73951  1.0000
  C   C94       1.0  0.19558  0.18982  0.74550  1.0000
  H   H46       1.0  0.20510  0.16254  0.71508  1.0000
  C   C95       1.0  0.30051  0.30777  0.78263  1.0000
  H   H47       1.0  0.29203  0.33332  0.82518  1.0000
  C   C96       1.0  0.80042  0.81230  0.75645  1.0000
  H   H48       1.0  0.79120  0.84388  0.74759  1.0000
  N   N21       1.0  0.33379  0.69497  0.77617  1.0000
  N   N22       1.0  0.83302  0.19356  0.76806  1.0000
  N   N23       1.0  0.66352  0.30560  0.72348  1.0000
  N   N24       1.0  0.16394  0.80551  0.71780  1.0000
  N   N25       1.0  0.66216  0.69819  0.76756  1.0000
  N   N26       1.0  0.16330  0.19431  0.77126  1.0000
  N   N27       1.0  0.33161  0.30511  0.74091  1.0000
  N   N28       1.0  0.83295  0.80289  0.77415  1.0000
  N   N29       1.0  0.99864  0.93905  0.75165  1.0000
  N   N30       1.0  0.49806  0.43992  0.75243  1.0000
  N   N31       1.0  0.99858  0.05955  0.74044  1.0000
  N   N32       1.0  0.49864  0.56055  0.74658  1.0000
  C   C97       1.0  0.21968  0.73161  0.19580  1.0000
  C   C98       1.0  0.22153  0.76747  0.24344  1.0000
  C  Sn1       1.0  0.25330  0.78012  0.29209  1.0000
  C  Sn2       1.0  0.28375  0.75636  0.29290  1.0000
  C   C99       1.0  0.28164  0.72054  0.24493  1.0000
  C   C100      1.0  0.24971  0.70816  0.19651  1.0000
  H   H49       1.0  0.19498  0.72204  0.15826  1.0000
  O  Te1       1.0  0.25468  0.81602  0.33936  1.0000
  O  Te2       1.0  0.31585  0.76830  0.34092  1.0000
  H   H50       1.0  0.24829  0.68041  0.15955  1.0000
  Mg  Mg1       1.0  0.30446  0.81959  0.39481  1.0000
  C   C101      1.0  0.73720  0.22581  0.15747  1.0000
  C   C102      1.0  0.77230  0.22541  0.20058  1.0000
  C  Sn3       1.0  0.78466  0.25302  0.27651  1.0000
  C  Sn4       1.0  0.76137  0.28152  0.30977  1.0000
  C   C103      1.0  0.72629  0.28165  0.26625  1.0000
  C   C104      1.0  0.71421  0.25390  0.19028  1.0000
  H   H51       1.0  0.72784  0.20432  0.09876  1.0000
  O  Te3       1.0  0.81981  0.25221  0.31872  1.0000
  O  Te4       1.0  0.77302  0.30945  0.38558  1.0000
  H   H52       1.0  0.68702  0.25420  0.15700  1.0000
  Mg  Mg2       1.0  0.82326  0.29639  0.41979  1.0000
  C   C105      1.0  0.78191  0.73379  0.22959  1.0000
  C   C106      1.0  0.77822  0.77510  0.22944  1.0000
  C  Sn5       1.0  0.74539  0.79164  0.23827  1.0000
  C  Sn6       1.0  0.71576  0.76628  0.24744  1.0000
  C   C107      1.0  0.71973  0.72499  0.24761  1.0000
  C   C108      1.0  0.75270  0.70875  0.23869  1.0000
  H   H53       1.0  0.80743  0.72123  0.22277  1.0000
  O  Te5       1.0  0.74217  0.83297  0.23793  1.0000
  O  Te6       1.0  0.68265  0.78201  0.25643  1.0000
  H   H54       1.0  0.75555  0.67677  0.23890  1.0000
  Mg  Mg3       1.0  0.69157  0.84021  0.25210  1.0000
  C   C109      1.0  0.26906  0.22011  0.17152  1.0000
  C   C110      1.0  0.23602  0.21738  0.22537  1.0000
  C  Sn7       1.0  0.22428  0.24733  0.28930  1.0000
  C  Sn8       1.0  0.24607  0.28059  0.29932  1.0000
  C   C111      1.0  0.27906  0.28306  0.24503  1.0000
  C   C112      1.0  0.29056  0.25292  0.18131  1.0000
  H   H55       1.0  0.27795  0.19680  0.12214  1.0000
  O  Te7       1.0  0.19120  0.24412  0.34259  1.0000
  O  Te8       1.0  0.23498  0.31095  0.36265  1.0000
  H   H56       1.0  0.31613  0.25505  0.13954  1.0000
  Mg  Mg4       1.0  0.18777  0.29311  0.41953  1.0000
  C   C113      1.0  0.41378  0.35823  0.14646  1.0000
  C   C114      1.0  0.41387  0.38973  0.21649  1.0000
  C  Sn9       1.0  0.38846  0.39141  0.31132  1.0000
  C  Sn10      1.0  0.36252  0.36095  0.33633  1.0000
  C   C115      1.0  0.36268  0.32955  0.26581  1.0000
  C   C116      1.0  0.38822  0.32817  0.17110  1.0000
  H   H57       1.0  0.43356  0.35715  0.07323  1.0000
  O  Te9       1.0  0.38892  0.42309  0.38036  1.0000
  O  Te10      1.0  0.33683  0.36189  0.43061  1.0000
  H   H58       1.0  0.38816  0.30377  0.11696  1.0000
  Mg  Mg5       1.0  0.34840  0.41120  0.49911  1.0000
  C   C117      1.0  0.87874  0.89590  0.13346  1.0000
  C   C118      1.0  0.90378  0.89828  0.23831  1.0000
  C  Sn11      1.0  0.90715  0.86693  0.35998  1.0000
  C  Sn12      1.0  0.88501  0.83259  0.37667  1.0000
  C   C119      1.0  0.86005  0.83048  0.27113  1.0000
  C   C120      1.0  0.85690  0.86203  0.14982  1.0000
  H   H59       1.0  0.87630  0.92030  0.03956  1.0000
  O  Te11      1.0  0.93230  0.86980  0.46372  1.0000
  O  Te12      1.0  0.88783  0.80081  0.49720  1.0000
  H   H60       1.0  0.83752  0.86017  0.06862  1.0000
  Mg  Mg6       1.0  0.92610  0.81874  0.60908  1.0000
  C   C121      1.0  0.59256  0.64046  0.35399  1.0000
  C   C122      1.0  0.58969  0.61377  0.26532  1.0000
  C  Sn13      1.0  0.61440  0.61418  0.16598  1.0000
  C  Sn14      1.0  0.64248  0.64185  0.15548  1.0000
  C   C123      1.0  0.64514  0.66840  0.24473  1.0000
  C   C124      1.0  0.62026  0.66774  0.34374  1.0000
  H   H61       1.0  0.57333  0.63994  0.43065  1.0000
  O  Te13      1.0  0.61113  0.58733  0.07818  1.0000
  O  Te14      1.0  0.66755  0.64290  0.05716  1.0000
  H   H62       1.0  0.62251  0.68839  0.41243  1.0000
  Mg  Mg7       1.0  0.66412  0.53010  0.96092  1.0000
  C   C125      1.0  0.12655  0.11742  0.12977  1.0000
  C   C126      1.0  0.09978  0.10508  0.22074  1.0000
  C  Sn15      1.0  0.09415  0.12511  0.32653  1.0000
  C  Sn16      1.0  0.11577  0.15810  0.34125  1.0000
  C   C127      1.0  0.14246  0.17023  0.24965  1.0000
  C   C128      1.0  0.14787  0.14996  0.14418  1.0000
  H   H63       1.0  0.13072  0.10175  0.04812  1.0000
  O  Te15      1.0  0.06730  0.11239  0.41654  1.0000
  O  Te16      1.0  0.11071  0.17867  0.44603  1.0000
  H   H64       1.0  0.16858  0.15954  0.07371  1.0000
  Mg  Mg8       1.0  0.07072  0.15002  0.54302  1.0000
  C   C129      1.0  0.59257  0.36365  0.13879  1.0000
  C   C130      1.0  0.59061  0.38859  0.23282  1.0000
  C  Sn17      1.0  0.61687  0.38703  0.33666  1.0000
  C  Sn18      1.0  0.64560  0.35998  0.34626  1.0000
  C   C131      1.0  0.64733  0.33517  0.25164  1.0000
  C   C132      1.0  0.62091  0.33696  0.14816  1.0000
  H   H65       1.0  0.57214  0.36505  0.05868  1.0000
  O  Te17      1.0  0.61449  0.41216  0.42979  1.0000
  O  Te18      1.0  0.67221  0.35781  0.44901  1.0000
  H   H66       1.0  0.62244  0.31767  0.07532  1.0000
  Mg  Mg9       1.0  0.65724  0.39814  0.55173  1.0000
  C   C133      1.0  0.14386  0.86875  0.34012  1.0000
  C   C134      1.0  0.14307  0.83853  0.26461  1.0000
  C  Sn19      1.0  0.11611  0.83800  0.16527  1.0000
  C  Sn20      1.0  0.08948  0.86834  0.14129  1.0000
  C   C135      1.0  0.09052  0.89846  0.21730  1.0000
  C   C136      1.0  0.11761  0.89869  0.31649  1.0000
  H   H67       1.0  0.16483  0.86895  0.41682  1.0000
  O  Te19      1.0  0.11571  0.80758  0.09079  1.0000
  O  Te20      1.0  0.06224  0.86854  0.04258  1.0000
  H   H68       1.0  0.11823  0.92211  0.37487  1.0000
  Mg  Mg10      1.0  0.08540  0.75051  0.96740  1.0000
  C   C137      1.0  0.37246  0.61434  0.15535  1.0000
  C   C138      1.0  0.40484  0.60628  0.22692  1.0000
  C  Sn21      1.0  0.41486  0.62700  0.32906  1.0000
  C  Sn22      1.0  0.39198  0.65630  0.35993  1.0000
  C   C139      1.0  0.35964  0.66412  0.28782  1.0000
  C   C140      1.0  0.34987  0.64322  0.18577  1.0000
  H   H69       1.0  0.36489  0.59815  0.07644  1.0000
  O  Te21      1.0  0.44730  0.61859  0.39954  1.0000
  O  Te22      1.0  0.40134  0.67743  0.46157  1.0000
  H   H70       1.0  0.32480  0.64945  0.13044  1.0000
  Mg  Mg11      1.0  0.44830  0.65532  0.52922  1.0000
  C   C141      1.0  0.91070  0.13412  0.37562  1.0000
  C   C142      1.0  0.91207  0.10761  0.28656  1.0000
  C  Sn23      1.0  0.88824  0.11193  0.17265  1.0000
  C  Sn24      1.0  0.86259  0.14341  0.14769  1.0000
  C   C143      1.0  0.86144  0.16980  0.23734  1.0000
  C   C144      1.0  0.88541  0.16519  0.35105  1.0000
  H   H71       1.0  0.92926  0.13057  0.46356  1.0000
  O  Te23      1.0  0.88997  0.08517  0.08473  1.0000
  O  Te24      1.0  0.83845  0.14843  0.03458  1.0000
  H   H72       1.0  0.88436  0.18574  0.41993  1.0000
  Mg  Mg12      1.0  0.86365  0.03411  0.94440  1.0000
  C   C145      1.0  0.23086  0.71740  0.69986  1.0000
  C   C146      1.0  0.26645  0.71858  0.73327  1.0000
  C  Sn25      1.0  0.28017  0.75078  0.78482  1.0000
  C  Sn26      1.0  0.25779  0.78234  0.80318  1.0000
  C   C147      1.0  0.22223  0.78086  0.76955  1.0000
  C   C148      1.0  0.20877  0.74850  0.71800  1.0000
  H   H73       1.0  0.22045  0.69235  0.66005  1.0000
  O  Te25      1.0  0.31579  0.75149  0.81762  1.0000
  O  Te26      1.0  0.27082  0.81487  0.85457  1.0000
  H   H74       1.0  0.18121  0.74758  0.69223  1.0000
  Mg  Mg13      1.0  0.32119  0.80225  0.88434  1.0000
  C   C149      1.0  0.71572  0.23172  0.71466  1.0000
  C   C150      1.0  0.71918  0.26973  0.74728  1.0000
  C  Sn27      1.0  0.75204  0.28401  0.77699  1.0000
  C  Sn28      1.0  0.78194  0.25972  0.77385  1.0000
  C   C151      1.0  0.77820  0.22175  0.74100  1.0000
  C   C152      1.0  0.74519  0.20774  0.71149  1.0000
  H   H75       1.0  0.69018  0.22089  0.69175  1.0000
  O  Te27      1.0  0.75504  0.32206  0.80943  1.0000
  O  Te28      1.0  0.81510  0.27326  0.80306  1.0000
  H   H76       1.0  0.74252  0.17832  0.68614  1.0000
  Mg  Mg14      1.0  0.80580  0.32724  0.84164  1.0000
  C   C153      1.0  0.76561  0.71599  0.74100  1.0000
  C   C154      1.0  0.72994  0.71949  0.75594  1.0000
  C  Sn29      1.0  0.71545  0.75685  0.76397  1.0000
  C  Sn30      1.0  0.73713  0.79128  0.75684  1.0000
  C   C155      1.0  0.77279  0.78747  0.74179  1.0000
  C   C156      1.0  0.78702  0.74994  0.73391  1.0000
  H   H77       1.0  0.77662  0.68697  0.73482  1.0000
  O  Te29      1.0  0.67976  0.75981  0.77894  1.0000
  O  Te30      1.0  0.72333  0.82898  0.76455  1.0000
  H   H78       1.0  0.81464  0.74725  0.72225  1.0000
  Mg  Mg15      1.0  0.67316  0.81771  0.78479  1.0000
  C   C157      1.0  0.27840  0.23456  0.70417  1.0000
  C   C158      1.0  0.27613  0.27056  0.75035  1.0000
  C  Sn31      1.0  0.24563  0.28037  0.80678  1.0000
  C  Sn32      1.0  0.21692  0.25359  0.81708  1.0000
  C   C159      1.0  0.21947  0.21763  0.77068  1.0000
  C   C160      1.0  0.25011  0.20811  0.71434  1.0000
  H   H79       1.0  0.30211  0.22718  0.66065  1.0000
  O  Te31      1.0  0.24379  0.31647  0.85237  1.0000
  O  Te32      1.0  0.18613  0.26264  0.87310  1.0000
  H   H80       1.0  0.25187  0.18023  0.67868  1.0000
  Mg  Mg16      1.0  0.19624  0.31545  0.92097  1.0000
  C   C161      1.0  0.35831  0.36885  0.86259  1.0000
  C   C162      1.0  0.35357  0.34294  0.77197  1.0000
  C  Sn33      1.0  0.37784  0.34201  0.67203  1.0000
  C  Sn34      1.0  0.40737  0.36753  0.66292  1.0000
  C   C163      1.0  0.41188  0.39333  0.75412  1.0000
  C   C164      1.0  0.38744  0.39402  0.85371  1.0000
  H   H81       1.0  0.33941  0.36937  0.93969  1.0000
  O  Te33      1.0  0.37270  0.31595  0.58227  1.0000
  O  Te34      1.0  0.43203  0.36721  0.56404  1.0000
  H   H82       1.0  0.39112  0.41407  0.92392  1.0000
  Mg  Mg17      1.0  0.41356  0.32646  0.46497  1.0000
  C   C165      1.0  0.89321  0.82932  0.89161  1.0000
  C   C166      1.0  0.86358  0.83155  0.80262  1.0000
  C  Sn35      1.0  0.85718  0.86610  0.69331  1.0000
  C  Sn36      1.0  0.88093  0.89897  0.67295  1.0000
  C   C167      1.0  0.91051  0.89643  0.76248  1.0000
  C   C168      1.0  0.91666  0.86172  0.87157  1.0000
  H   H83       1.0  0.89798  0.80246  0.97596  1.0000
  O  Te35      1.0  0.82744  0.86784  0.60540  1.0000
  O  Te36      1.0  0.87518  0.93386  0.56448  1.0000
  H   H84       1.0  0.93961  0.85999  0.94039  1.0000
  Mg  Mg18      1.0  0.83095  0.92185  0.47236  1.0000
  C   C169      1.0  0.60071  0.65817  0.85178  1.0000
  C   C170      1.0  0.63112  0.66707  0.77925  1.0000
  C  Sn37      1.0  0.63993  0.64499  0.68248  1.0000
  C  Sn38      1.0  0.61784  0.61344  0.65808  1.0000
  C   C171      1.0  0.58746  0.60479  0.73110  1.0000
  C   C172      1.0  0.57890  0.62707  0.82773  1.0000
  H   H85       1.0  0.59407  0.67542  0.92649  1.0000
  O  Te37      1.0  0.67042  0.65427  0.61096  1.0000
  O  Te38      1.0  0.62602  0.59091  0.56191  1.0000
  H   H86       1.0  0.55534  0.62019  0.88380  1.0000
  Mg  Mg19      1.0  0.67039  0.61498  0.49030  1.0000
  C   C173      1.0  0.08618  0.14238  0.83378  1.0000
  C   C174      1.0  0.08494  0.11343  0.75319  1.0000
  C  Sn39      1.0  0.11240  0.10975  0.66945  1.0000
  C  Sn40      1.0  0.14162  0.13555  0.66658  1.0000
  C   C175      1.0  0.14262  0.16440  0.74766  1.0000
  C   C176      1.0  0.11499  0.16784  0.83105  1.0000
  H   H87       1.0  0.06481  0.14503  0.89836  1.0000
  O  Te39      1.0  0.11074  0.08067  0.58954  1.0000
  O  Te40      1.0  0.16943  0.13250  0.58385  1.0000
  H   H88       1.0  0.11596  0.19024  0.89351  1.0000
  Mg  Mg20      1.0  0.15508  0.08818  0.49341  1.0000
  C   C177      1.0  0.58730  0.36212  0.63559  1.0000
  C   C178      1.0  0.58552  0.38774  0.72751  1.0000
  C  Sn41      1.0  0.61231  0.38742  0.82829  1.0000
  C  Sn42      1.0  0.64140  0.36094  0.83692  1.0000
  C   C179      1.0  0.64295  0.33545  0.74441  1.0000
  C   C180      1.0  0.61599  0.33601  0.64399  1.0000
  H   H89       1.0  0.56645  0.36257  0.55784  1.0000
  O  Te41      1.0  0.61011  0.41319  0.91935  1.0000
  O  Te42      1.0  0.66854  0.36001  0.93661  1.0000
  H   H90       1.0  0.61739  0.31619  0.57277  1.0000
  Mg  Mg21      1.0  0.64134  0.47106  0.03738  1.0000
  C   C181      1.0  0.10237  0.84750  0.61934  1.0000
  C   C182      1.0  0.13212  0.83574  0.70647  1.0000
  C  Sn43      1.0  0.13961  0.85383  0.81779  1.0000
  C  Sn44      1.0  0.11684  0.88423  0.84210  1.0000
  C   C183      1.0  0.08714  0.89575  0.75439  1.0000
  C   C184      1.0  0.07990  0.87747  0.64327  1.0000
  H   H91       1.0  0.09676  0.83333  0.53340  1.0000
  O  Te43      1.0  0.16945  0.84174  0.90380  1.0000
  O  Te44      1.0  0.12370  0.90279  0.95264  1.0000
  H   H92       1.0  0.05685  0.88655  0.57588  1.0000
  Mg  Mg22      1.0  0.15533  0.94620  0.04090  1.0000
  C   C185      1.0  0.36981  0.61577  0.64975  1.0000
  C   C186      1.0  0.40200  0.60752  0.72266  1.0000
  C  Sn45      1.0  0.41189  0.62831  0.82478  1.0000
  C  Sn46      1.0  0.38906  0.65787  0.85425  1.0000
  C   C187      1.0  0.35689  0.66589  0.78080  1.0000
  C   C188      1.0  0.34727  0.64492  0.67879  1.0000
  H   H93       1.0  0.36235  0.59954  0.57088  1.0000
  O  Te45      1.0  0.44415  0.61970  0.89661  1.0000
  O  Te46      1.0  0.39828  0.67908  0.95583  1.0000
  H   H94       1.0  0.32233  0.65129  0.62242  1.0000
  Mg  Mg23      1.0  0.43272  0.72685  0.02562  1.0000
  C   C189      1.0  0.89907  0.16039  0.83396  1.0000
  C   C190      1.0  0.86612  0.16575  0.76617  1.0000
  C  Sn47      1.0  0.85344  0.13721  0.69467  1.0000
  C  Sn48      1.0  0.87419  0.10268  0.69119  1.0000
  C   C191      1.0  0.90710  0.09759  0.75943  1.0000
  C   C192      1.0  0.91954  0.12635  0.83063  1.0000
  H   H95       1.0  0.90869  0.18263  0.88912  1.0000
  O  Te47      1.0  0.82047  0.14303  0.62746  1.0000
  O  Te48      1.0  0.86214  0.07368  0.62054  1.0000
  H   H96       1.0  0.94505  0.12218  0.88318  1.0000
  Mg  Mg24      1.0  0.81550  0.09507  0.54492  1.0000
