data_image0
_chemical_formula_structural       C8H8C8H8C4H4C8H8C2NC2NCH2NC8NCH6C2NC2NC3H2C2NC8NC3H6C2NC2NC3H2NC8NCH6C8H8C4H4C4H4C8H8NC2NCH2C2NC2NC3H2NC2NCH2C2NC2NC3H2C2NC8NCH6NC8NC3H6C2Sn2C2HTe2HMgC2Sn2C2HTe2HMgC2Sn2C2HTe2HMgC2Sn2C2HTe2HMgC2Sn2C2HTe2HMgC2Sn2C2HTe2HMgC2Sn2C2HTe2HMgC2Sn2C2HTe2HMgC2Sn2C2HTe2HMgC2Sn2C2HTe2HMgC2Sn2C2HTe2HMgC2Sn2C2HTe2HMgC2Sn2C2HTe2HMgC2Sn2C2HTe2HMgC2Sn2C2HTe2HMgC2Sn2C2HTe2HMgC2Sn2C2HTe2HMgC2Sn2C2HTe2HMg
_chemical_formula_sum              "C216 H132 N24 Sn36 Te36 Mg18"
_cell_length_a       38.5696
_cell_length_b       38.6334
_cell_length_c       9.66315
_cell_angle_alpha    89.2241
_cell_angle_beta     91.4641
_cell_angle_gamma    119.951

_symmetry_space_group_name_H-M    'P1'
_space_group_IT_number       1

loop_
  _space_group_symop_operation_xyz
  'x, y, z'

loop_
  _atom_site_type_symbol
  _atom_site_label
  _atom_site_symmetry_multiplicity
  _atom_site_fract_x
  _atom_site_fract_y
  _atom_site_fract_z
  _atom_site_occupancy
  C   C1        1.0  0.55844  0.96899  0.32949  1.0000
  C   C2        1.0  0.56475  0.93658  0.32796  1.0000
  C   C3        1.0  0.51297  0.90538  0.15002  1.0000
  C   C4        1.0  0.50726  0.93804  0.15178  1.0000
  C   C5        1.0  0.53120  0.62237  0.16397  1.0000
  C   C6        1.0  0.53539  0.58861  0.16548  1.0000
  C   C7        1.0  0.48695  0.55977  0.34560  1.0000
  C   C8        1.0  0.48226  0.59312  0.34457  1.0000
  H   H1        1.0  0.57596  0.99367  0.40015  1.0000
  H   H2        1.0  0.58679  0.93540  0.39719  1.0000
  H   H3        1.0  0.49657  0.88150  0.07542  1.0000
  H   H4        1.0  0.48534  0.93917  0.08227  1.0000
  H   H5        1.0  0.54720  0.64596  0.08864  1.0000
  H   H6        1.0  0.55540  0.58644  0.09322  1.0000
  H   H7        1.0  0.46958  0.53526  0.41561  1.0000
  H   H8        1.0  0.46205  0.59540  0.41546  1.0000
  C   C9        1.0  0.03219  0.58820  0.32321  1.0000
  C   C10       1.0  0.06421  0.62719  0.32367  1.0000
  C   C11       1.0  0.09654  0.60878  0.15108  1.0000
  C   C12       1.0  0.06406  0.57017  0.15031  1.0000
  C   C13       1.0  0.37840  0.90967  0.17785  1.0000
  C   C14       1.0  0.41221  0.94753  0.17377  1.0000
  C   C15       1.0  0.44440  0.92774  0.34836  1.0000
  C   C16       1.0  0.41089  0.88991  0.35366  1.0000
  H   H9        1.0  0.00736  0.58023  0.39173  1.0000
  H   H10       1.0  0.06470  0.64949  0.39247  1.0000
  H   H11       1.0  0.12072  0.61709  0.07916  1.0000
  H   H12       1.0  0.06376  0.54800  0.08189  1.0000
  H   H13       1.0  0.35347  0.90220  0.10605  1.0000
  H   H14       1.0  0.41289  0.96958  0.10103  1.0000
  H   H15       1.0  0.47046  0.93456  0.41266  1.0000
  H   H16       1.0  0.41002  0.86730  0.42407  1.0000
  C   C17       1.0  0.44456  0.03165  0.32328  1.0000
  C   C18       1.0  0.43851  0.06426  0.32352  1.0000
  C   C19       1.0  0.49123  0.09782  0.15751  1.0000
  C   C20       1.0  0.49697  0.06515  0.15816  1.0000
  H   H17       1.0  0.42644  0.00593  0.38834  1.0000
  H   H18       1.0  0.41603  0.06449  0.38859  1.0000
  H   H19       1.0  0.50801  0.12253  0.08689  1.0000
  H   H20       1.0  0.51927  0.06513  0.09213  1.0000
  C   C21       1.0  0.58961  0.55736  0.32809  1.0000
  C   C22       1.0  0.62832  0.56344  0.32618  1.0000
  C   C23       1.0  0.60805  0.51401  0.14419  1.0000
  C   C24       1.0  0.56959  0.50819  0.14752  1.0000
  C   C25       1.0  0.91117  0.53372  0.16958  1.0000
  C   C26       1.0  0.94903  0.53761  0.17156  1.0000
  C   C27       1.0  0.92698  0.48310  0.33338  1.0000
  C   C28       1.0  0.88898  0.47866  0.33109  1.0000
  H   H21       1.0  0.58233  0.57405  0.40026  1.0000
  H   H22       1.0  0.65137  0.58436  0.39741  1.0000
  H   H23       1.0  0.61561  0.49852  0.06787  1.0000
  H   H24       1.0  0.54647  0.48698  0.07779  1.0000
  H   H25       1.0  0.90473  0.55253  0.10140  1.0000
  H   H26       1.0  0.97219  0.56018  0.10709  1.0000
  H   H27       1.0  0.93286  0.46316  0.39688  1.0000
  H   H28       1.0  0.86542  0.45615  0.39449  1.0000
  C   C29       1.0  0.47473  0.03175  0.24349  1.0000
  C   C30       1.0  0.46277  0.09858  0.24461  1.0000
  N   N1        1.0  0.45685  0.13131  0.25537  1.0000
  C   C31       1.0  0.48708  0.16695  0.24061  1.0000
  C   C32       1.0  0.47414  0.30819  0.27010  1.0000
  N   N2        1.0  0.50453  0.34403  0.27092  1.0000
  C   C33       1.0  0.48243  0.99783  0.25061  1.0000
  H   H29       1.0  0.51756  0.17220  0.22592  1.0000
  H   H30       1.0  0.44340  0.30276  0.27871  1.0000
  N   N3        1.0  0.87306  0.32408  0.25381  1.0000
  C   C34       1.0  0.83718  0.31875  0.24738  1.0000
  C   C35       1.0  0.80153  0.27924  0.25027  1.0000
  C   C36       1.0  0.76348  0.27605  0.25413  1.0000
  C   C37       1.0  0.72886  0.23897  0.25779  1.0000
  C   C38       1.0  0.73134  0.20379  0.25697  1.0000
  C   C39       1.0  0.76938  0.20700  0.25253  1.0000
  C   C40       1.0  0.80399  0.24409  0.24959  1.0000
  C   C41       1.0  0.69569  0.16427  0.26051  1.0000
  N   N4        1.0  0.66015  0.15909  0.27409  1.0000
  C   C42       1.0  0.00457  0.48423  0.24605  1.0000
  H   H31       1.0  0.83186  0.34423  0.24174  1.0000
  H   H32       1.0  0.76165  0.30328  0.25447  1.0000
  H   H33       1.0  0.69941  0.23619  0.26124  1.0000
  H   H34       1.0  0.77134  0.17984  0.25163  1.0000
  H   H35       1.0  0.83346  0.24694  0.24662  1.0000
  H   H36       1.0  0.70076  0.13871  0.25363  1.0000
  C   C43       1.0  0.55907  0.52862  0.24160  1.0000
  C   C44       1.0  0.63787  0.54090  0.23737  1.0000
  N   N5        1.0  0.67679  0.54690  0.24373  1.0000
  C   C45       1.0  0.68170  0.51649  0.22577  1.0000
  C   C46       1.0  0.83575  0.52796  0.24031  1.0000
  N   N6        1.0  0.84127  0.49761  0.24853  1.0000
  C   C47       1.0  0.88036  0.50410  0.24968  1.0000
  C   C48       1.0  0.95790  0.51219  0.25209  1.0000
  C   C49       1.0  0.51726  0.52019  0.25027  1.0000
  H   H37       1.0  0.65593  0.48616  0.21300  1.0000
  H   H38       1.0  0.86112  0.55878  0.24291  1.0000
  C   C50       1.0  0.52877  0.96996  0.24397  1.0000
  C   C51       1.0  0.54114  0.90360  0.24136  1.0000
  N   N7        1.0  0.54746  0.87098  0.24636  1.0000
  C   C52       1.0  0.51664  0.83551  0.23474  1.0000
  C   C53       1.0  0.52003  0.79964  0.23200  1.0000
  C   C54       1.0  0.48499  0.76179  0.23346  1.0000
  C   C55       1.0  0.48723  0.72701  0.23548  1.0000
  C   C56       1.0  0.52478  0.72917  0.23490  1.0000
  C   C57       1.0  0.55974  0.76704  0.23029  1.0000
  C   C58       1.0  0.55755  0.80181  0.22955  1.0000
  C   C59       1.0  0.52869  0.69355  0.24033  1.0000
  N   N8        1.0  0.49846  0.65804  0.25662  1.0000
  C   C60       1.0  0.50463  0.62529  0.25442  1.0000
  C   C61       1.0  0.51307  0.55629  0.25519  1.0000
  C   C62       1.0  0.52080  0.00357  0.25223  1.0000
  H   H39       1.0  0.48603  0.83078  0.23003  1.0000
  H   H40       1.0  0.45598  0.76018  0.23370  1.0000
  H   H41       1.0  0.46045  0.69769  0.23784  1.0000
  H   H42       1.0  0.58875  0.76872  0.22816  1.0000
  H   H43       1.0  0.58428  0.83117  0.22731  1.0000
  H   H44       1.0  0.55939  0.69874  0.23320  1.0000
  C   C63       1.0  0.03175  0.55841  0.23912  1.0000
  C   C64       1.0  0.09769  0.63774  0.24141  1.0000
  N   N9        1.0  0.13027  0.67673  0.24870  1.0000
  C   C65       1.0  0.16593  0.68149  0.25473  1.0000
  C   C66       1.0  0.30829  0.83556  0.25789  1.0000
  N   N10       1.0  0.34412  0.84139  0.27824  1.0000
  C   C67       1.0  0.37688  0.88019  0.26933  1.0000
  C   C68       1.0  0.44622  0.95754  0.25845  1.0000
  C   C69       1.0  0.99827  0.51649  0.24595  1.0000
  H   H45       1.0  0.17056  0.65564  0.26364  1.0000
  H   H46       1.0  0.30265  0.86057  0.24031  1.0000
  N   N11       1.0  0.32462  0.45218  0.25328  1.0000
  C   C70       1.0  0.31951  0.48282  0.24782  1.0000
  C   C71       1.0  0.28016  0.47925  0.25114  1.0000
  C   C72       1.0  0.27730  0.51428  0.25054  1.0000
  C   C73       1.0  0.24035  0.51213  0.25611  1.0000
  C   C74       1.0  0.20512  0.47464  0.26224  1.0000
  C   C75       1.0  0.20803  0.43966  0.26255  1.0000
  C   C76       1.0  0.24494  0.44179  0.25688  1.0000
  C   C77       1.0  0.16570  0.47097  0.26697  1.0000
  N   N12       1.0  0.16078  0.50165  0.27268  1.0000
  C   C78       1.0  0.48514  0.48163  0.25210  1.0000
  H   H47       1.0  0.34515  0.51344  0.24334  1.0000
  H   H48       1.0  0.30466  0.54318  0.24605  1.0000
  H   H49       1.0  0.23766  0.53885  0.25589  1.0000
  H   H50       1.0  0.18075  0.41073  0.26731  1.0000
  H   H51       1.0  0.24763  0.41506  0.25750  1.0000
  H   H52       1.0  0.14004  0.44030  0.26727  1.0000
  C   C79       1.0  0.55646  0.96950  0.83711  1.0000
  C   C80       1.0  0.56295  0.93716  0.84002  1.0000
  C   C81       1.0  0.51147  0.90456  0.66224  1.0000
  C   C82       1.0  0.50552  0.93712  0.66008  1.0000
  C   C83       1.0  0.52991  0.62305  0.68775  1.0000
  C   C84       1.0  0.53377  0.58912  0.68444  1.0000
  C   C85       1.0  0.47939  0.55581  0.84205  1.0000
  C   C86       1.0  0.47469  0.58914  0.84410  1.0000
  H   H53       1.0  0.57413  0.99482  0.90524  1.0000
  H   H54       1.0  0.58510  0.93667  0.91075  1.0000
  H   H55       1.0  0.49508  0.88016  0.58936  1.0000
  H   H56       1.0  0.48343  0.93749  0.58951  1.0000
  H   H57       1.0  0.54890  0.64875  0.62383  1.0000
  H   H58       1.0  0.55618  0.58886  0.61901  1.0000
  H   H59       1.0  0.45952  0.52971  0.90205  1.0000
  H   H60       1.0  0.45211  0.58967  0.90783  1.0000
  C   C87       1.0  0.03002  0.58771  0.82121  1.0000
  C   C88       1.0  0.06245  0.62646  0.82150  1.0000
  C   C89       1.0  0.09384  0.60762  0.64671  1.0000
  C   C90       1.0  0.06133  0.56910  0.64738  1.0000
  H   H61       1.0  0.00516  0.57996  0.88933  1.0000
  H   H62       1.0  0.06350  0.64905  0.89020  1.0000
  H   H63       1.0  0.11757  0.61570  0.57313  1.0000
  H   H64       1.0  0.06044  0.54673  0.57850  1.0000
  C   C91       1.0  0.08773  0.46672  0.66910  1.0000
  C   C92       1.0  0.05017  0.46358  0.66666  1.0000
  C   C93       1.0  0.07223  0.51416  0.84256  1.0000
  C   C94       1.0  0.10985  0.51765  0.84599  1.0000
  H   H65       1.0  0.09418  0.44952  0.59645  1.0000
  H   H66       1.0  0.02705  0.44298  0.59493  1.0000
  H   H67       1.0  0.06622  0.53284  0.90923  1.0000
  H   H68       1.0  0.13315  0.53827  0.91713  1.0000
  C   C95       1.0  0.96876  0.41186  0.81995  1.0000
  C   C96       1.0  0.93719  0.37268  0.81883  1.0000
  C   C97       1.0  0.90125  0.39156  0.65339  1.0000
  C   C98       1.0  0.93326  0.43040  0.65373  1.0000
  C   C99       1.0  0.62128  0.08872  0.68181  1.0000
  C   C100      1.0  0.58706  0.05127  0.68200  1.0000
  C   C101      1.0  0.55691  0.07444  0.84491  1.0000
  C   C102      1.0  0.59098  0.11196  0.84598  1.0000
  H   H69       1.0  0.99491  0.41984  0.88619  1.0000
  H   H70       1.0  0.93829  0.34999  0.88355  1.0000
  H   H71       1.0  0.87556  0.38336  0.58443  1.0000
  H   H72       1.0  0.93194  0.45271  0.58794  1.0000
  H   H73       1.0  0.64551  0.09474  0.61275  1.0000
  H   H74       1.0  0.58523  0.02779  0.61603  1.0000
  H   H75       1.0  0.53171  0.06901  0.90730  1.0000
  H   H76       1.0  0.59316  0.13566  0.91166  1.0000
  N   N13       1.0  0.45145  0.12853  0.77137  1.0000
  C   C103      1.0  0.48128  0.16394  0.74936  1.0000
  C   C104      1.0  0.47106  0.30667  0.78250  1.0000
  N   N14       1.0  0.50169  0.34226  0.77453  1.0000
  C   C105      1.0  0.47915  0.99646  0.75515  1.0000
  H   H77       1.0  0.51116  0.16874  0.72591  1.0000
  H   H78       1.0  0.44089  0.30196  0.79930  1.0000
  C   C106      1.0  0.96740  0.44186  0.73907  1.0000
  C   C107      1.0  0.90233  0.36211  0.73845  1.0000
  N   N15       1.0  0.87061  0.32269  0.74388  1.0000
  C   C108      1.0  0.83452  0.31683  0.74199  1.0000
  C   C109      1.0  0.69256  0.16299  0.75126  1.0000
  N   N16       1.0  0.65726  0.15829  0.76735  1.0000
  C   C110      1.0  0.62403  0.11975  0.76506  1.0000
  C   C111      1.0  0.55381  0.04322  0.76218  1.0000
  C   C112      1.0  0.00118  0.48356  0.74511  1.0000
  H   H79       1.0  0.82884  0.34206  0.74517  1.0000
  H   H80       1.0  0.69745  0.13731  0.74536  1.0000
  N   N17       1.0  0.67588  0.55110  0.75261  1.0000
  C   C113      1.0  0.68114  0.52053  0.75668  1.0000
  C   C114      1.0  0.83513  0.53160  0.74551  1.0000
  N   N18       1.0  0.84051  0.50150  0.76758  1.0000
  C   C115      1.0  0.51422  0.51920  0.75469  1.0000
  H   H81       1.0  0.65555  0.48992  0.76364  1.0000
  H   H82       1.0  0.86041  0.56175  0.72591  1.0000
  C   C116      1.0  0.52659  0.96966  0.75032  1.0000
  C   C117      1.0  0.53931  0.90330  0.75698  1.0000
  N   N19       1.0  0.54497  0.87036  0.77169  1.0000
  C   C118      1.0  0.51422  0.83488  0.75808  1.0000
  C   C119      1.0  0.52518  0.69215  0.78085  1.0000
  N   N20       1.0  0.49442  0.65656  0.77407  1.0000
  C   C120      1.0  0.50033  0.62373  0.76857  1.0000
  C   C121      1.0  0.50870  0.55456  0.76128  1.0000
  C   C122      1.0  0.51779  0.00292  0.75583  1.0000
  H   H83       1.0  0.48387  0.83030  0.74111  1.0000
  H   H84       1.0  0.55578  0.69699  0.79202  1.0000
  C   C123      1.0  0.02921  0.55780  0.73682  1.0000
  C   C124      1.0  0.09563  0.63675  0.73786  1.0000
  N   N21       1.0  0.12835  0.67553  0.74874  1.0000
  C   C125      1.0  0.16391  0.68119  0.72976  1.0000
  C   C126      1.0  0.19949  0.72063  0.73639  1.0000
  C   C127      1.0  0.23740  0.72445  0.71698  1.0000
  C   C128      1.0  0.27192  0.76157  0.72343  1.0000
  C   C129      1.0  0.26945  0.79606  0.74910  1.0000
  C   C130      1.0  0.23156  0.79223  0.76841  1.0000
  C   C131      1.0  0.19705  0.75510  0.76299  1.0000
  C   C132      1.0  0.30505  0.83550  0.75658  1.0000
  N   N22       1.0  0.34079  0.84050  0.75835  1.0000
  C   C133      1.0  0.99551  0.51617  0.74381  1.0000
  H   H85       1.0  0.16914  0.65614  0.71092  1.0000
  H   H86       1.0  0.23930  0.69780  0.69654  1.0000
  H   H87       1.0  0.30130  0.76493  0.70848  1.0000
  H   H88       1.0  0.22975  0.81892  0.78873  1.0000
  H   H89       1.0  0.16769  0.75169  0.77883  1.0000
  H   H90       1.0  0.29993  0.86102  0.76330  1.0000
  N   N23       1.0  0.32180  0.45022  0.75165  1.0000
  C   C134      1.0  0.31639  0.48064  0.74473  1.0000
  C   C135      1.0  0.27679  0.47682  0.74456  1.0000
  C   C136      1.0  0.27372  0.51159  0.75462  1.0000
  C   C137      1.0  0.23663  0.50924  0.75763  1.0000
  C   C138      1.0  0.20125  0.47185  0.74875  1.0000
  C   C139      1.0  0.20438  0.43712  0.73704  1.0000
  C   C140      1.0  0.24149  0.43945  0.73555  1.0000
  C   C141      1.0  0.16173  0.46822  0.75119  1.0000
  N   N24       1.0  0.15684  0.49872  0.76673  1.0000
  C   C142      1.0  0.11826  0.49361  0.76023  1.0000
  C   C143      1.0  0.04150  0.48738  0.75243  1.0000
  C   C144      1.0  0.48269  0.48019  0.75533  1.0000
  H   H91       1.0  0.34191  0.51136  0.74196  1.0000
  H   H92       1.0  0.30102  0.54054  0.76088  1.0000
  H   H93       1.0  0.23398  0.53585  0.76661  1.0000
  H   H94       1.0  0.17720  0.40812  0.72888  1.0000
  H   H95       1.0  0.24423  0.41286  0.72738  1.0000
  H   H96       1.0  0.13607  0.43767  0.74150  1.0000
  C   C145      1.0  0.51627  0.24812  0.71783  1.0000
  C   C146      1.0  0.48787  0.20922  0.75551  1.0000
  C  Sn1       1.0  0.45009  0.20068  0.79844  1.0000
  C  Sn2       1.0  0.44064  0.23173  0.80359  1.0000
  C   C147      1.0  0.46924  0.27054  0.76559  1.0000
  C   C148      1.0  0.50696  0.27876  0.72283  1.0000
  H   H97       1.0  0.54545  0.25447  0.68467  1.0000
  O  Te1       1.0  0.42208  0.16165  0.83578  1.0000
  O  Te2       1.0  0.40309  0.22402  0.84606  1.0000
  H   H98       1.0  0.52893  0.30888  0.69357  1.0000
  Mg  Mg1       1.0  0.37500  0.16604  0.88672  1.0000
  C   C149      1.0  0.43381  0.05265  0.85920  1.0000
  C   C150      1.0  0.45204  0.08808  0.78266  1.0000
  C  Sn3       1.0  0.47878  0.09327  0.67877  1.0000
  C  Sn4       1.0  0.48735  0.06237  0.65121  1.0000
  C   C151      1.0  0.46893  0.02703  0.72829  1.0000
  C   C152      1.0  0.44224  0.02215  0.83204  1.0000
  H   H99       1.0  0.41314  0.04887  0.93942  1.0000
  O  Te3       1.0  0.49674  0.12886  0.60332  1.0000
  O  Te4       1.0  0.51394  0.06677  0.54793  1.0000
  H   H100      1.0  0.92820  0.99470  0.89122  1.0000
  Mg  Mg2       1.0  0.53089  0.12075  0.47316  1.0000
  C   C153      1.0  0.26963  0.74997  0.29120  1.0000
  C   C154      1.0  0.27428  0.78735  0.25806  1.0000
  C  Sn5       1.0  0.24081  0.79125  0.22714  1.0000
  C  Sn6       1.0  0.20201  0.75704  0.22956  1.0000
  C   C155      1.0  0.19768  0.71978  0.26294  1.0000
  C   C156      1.0  0.23137  0.71621  0.29367  1.0000
  H   H101      1.0  0.29570  0.74720  0.31505  1.0000
  O  Te5       1.0  0.24599  0.82883  0.19419  1.0000
  O  Te6       1.0  0.16804  0.76010  0.19914  1.0000
  H   H102      1.0  0.22777  0.68726  0.31941  1.0000
  Mg  Mg3       1.0  0.19050  0.81775  0.16029  1.0000
  C   C157      1.0  0.39941  0.94087  0.65964  1.0000
  C   C158      1.0  0.43369  0.95548  0.74463  1.0000
  C  Sn7       1.0  0.43877  0.92990  0.83581  1.0000
  C  Sn8       1.0  0.40893  0.88896  0.84177  1.0000
  C   C159      1.0  0.37476  0.87463  0.75625  1.0000
  C   C160      1.0  0.36997  0.90049  0.66541  1.0000
  H   H103      1.0  0.39571  0.96087  0.58930  1.0000
  O  Te7       1.0  0.47319  0.94499  0.92003  1.0000
  O  Te8       1.0  0.41325  0.86274  0.93192  1.0000
  H   H104      1.0  0.34344  0.88917  0.59956  1.0000
  Mg  Mg4       1.0  0.45916  0.89774  0.02599  1.0000
  C   C161      1.0  0.39921  0.48969  0.63676  1.0000
  C   C162      1.0  0.36648  0.46174  0.71200  1.0000
  C  Sn9       1.0  0.37151  0.43853  0.81393  1.0000
  C  Sn10      1.0  0.41006  0.44346  0.84083  1.0000
  C   C163      1.0  0.44262  0.47153  0.76505  1.0000
  C   C164      1.0  0.43725  0.49459  0.66325  1.0000
  H   H105      1.0  0.39506  0.50755  0.55804  1.0000
  O  Te9       1.0  0.33848  0.41073  0.88811  1.0000
  O  Te10      1.0  0.41593  0.42067  0.94216  1.0000
  H   H106      1.0  0.46260  0.51625  0.60508  1.0000
  Mg  Mg5       1.0  0.35536  0.38694  0.01575  1.0000
  C   C165      1.0  0.91812  0.53746  0.64967  1.0000
  C   C166      1.0  0.88492  0.51159  0.72734  1.0000
  C  Sn11      1.0  0.88797  0.48663  0.82690  1.0000
  C  Sn12      1.0  0.92499  0.48766  0.84889  1.0000
  C   C167      1.0  0.95804  0.51367  0.77072  1.0000
  C   C168      1.0  0.95465  0.53852  0.67133  1.0000
  H   H107      1.0  0.91550  0.55670  0.57282  1.0000
  O  Te11      1.0  0.85450  0.46094  0.90356  1.0000
  O  Te12      1.0  0.92888  0.46304  0.94776  1.0000
  H   H108      1.0  0.98036  0.55856  0.61127  1.0000
  Mg  Mg6       1.0  0.86846  0.43340  0.02629  1.0000
  C   C169      1.0  0.52248  0.25155  0.22460  1.0000
  C   C170      1.0  0.49298  0.21194  0.24803  1.0000
  C  Sn13      1.0  0.45373  0.20247  0.27374  1.0000
  C  Sn14      1.0  0.44390  0.23329  0.27593  1.0000
  C   C171      1.0  0.47362  0.27282  0.25227  1.0000
  C   C172      1.0  0.51282  0.28197  0.22669  1.0000
  H   H109      1.0  0.55280  0.25863  0.20473  1.0000
  O  Te13      1.0  0.42462  0.16274  0.29699  1.0000
  O  Te14      1.0  0.40490  0.22465  0.30132  1.0000
  H   H110      1.0  0.53564  0.31264  0.20846  1.0000
  Mg  Mg7       1.0  0.37571  0.16596  0.32709  1.0000
  C   C173      1.0  0.46294  0.38284  0.16967  1.0000
  C   C174      1.0  0.49180  0.37692  0.23907  1.0000
  C  Sn15      1.0  0.51951  0.40596  0.32983  1.0000
  C  Sn16      1.0  0.51823  0.44156  0.35135  1.0000
  C   C175      1.0  0.48922  0.44719  0.28150  1.0000
  C   C176      1.0  0.46164  0.41794  0.19087  1.0000
  H   H111      1.0  0.44159  0.36020  0.09960  1.0000
  O  Te15      1.0  0.54816  0.39957  0.39829  1.0000
  O  Te16      1.0  0.54556  0.47107  0.44153  1.0000
  H   H112      1.0  0.43929  0.42252  0.13723  1.0000
  Mg  Mg8       1.0  0.57896  0.44858  0.51085  1.0000
  C   C177      1.0  0.72974  0.47962  0.21347  1.0000
  C   C178      1.0  0.72067  0.51012  0.22922  1.0000
  C  Sn17      1.0  0.75136  0.54984  0.24053  1.0000
  C  Sn18      1.0  0.79184  0.55911  0.23591  1.0000
  C   C179      1.0  0.80060  0.52839  0.22003  1.0000
  C   C180      1.0  0.76967  0.48874  0.20885  1.0000
  H   H113      1.0  0.70581  0.44895  0.20474  1.0000
  O  Te17      1.0  0.74177  0.57994  0.25627  1.0000
  O  Te18      1.0  0.82309  0.59856  0.24693  1.0000
  H   H114      1.0  0.77670  0.46514  0.19657  1.0000
  Mg  Mg9       1.0  0.79485  0.62913  0.26697  1.0000
  C   C181      1.0  0.56049  0.79574  0.79891  1.0000
  C   C182      1.0  0.52746  0.80023  0.76600  1.0000
  C  Sn19      1.0  0.48977  0.76667  0.74325  1.0000
  C  Sn20      1.0  0.48516  0.72792  0.75375  1.0000
  C   C183      1.0  0.51838  0.72375  0.78683  1.0000
  C   C184      1.0  0.55596  0.75754  0.80935  1.0000
  H   H115      1.0  0.58956  0.82188  0.81641  1.0000
  O  Te19      1.0  0.45709  0.77170  0.71040  1.0000
  O  Te20      1.0  0.44783  0.69387  0.73158  1.0000
  H   H116      1.0  0.58153  0.75405  0.83492  1.0000
  Mg  Mg10      1.0  0.41232  0.71614  0.68941  1.0000
  C   C185      1.0  0.08098  0.46204  0.16516  1.0000
  C   C186      1.0  0.11555  0.48983  0.23676  1.0000
  C  Sn21      1.0  0.11413  0.51687  0.32774  1.0000
  C  Sn22      1.0  0.07736  0.51600  0.34722  1.0000
  C   C187      1.0  0.04293  0.48806  0.27517  1.0000
  C   C188      1.0  0.04470  0.46115  0.18435  1.0000
  H   H117      1.0  0.08234  0.44121  0.09494  1.0000
  O  Te21      1.0  0.14895  0.54445  0.39841  1.0000
  O  Te22      1.0  0.07509  0.54267  0.43756  1.0000
  H   H118      1.0  0.01792  0.43962  0.12900  1.0000
  Mg  Mg11      1.0  0.13069  0.57467  0.51029  1.0000
  C   C189      1.0  0.90995  0.40205  0.13766  1.0000
  C   C190      1.0  0.90592  0.36879  0.21052  1.0000
  C  Sn23      1.0  0.93529  0.37295  0.30732  1.0000
  C  Sn24      1.0  0.96928  0.41115  0.33144  1.0000
  C   C191      1.0  0.97301  0.44425  0.25809  1.0000
  C   C192      1.0  0.94346  0.43975  0.16143  1.0000
  H   H119      1.0  0.88707  0.39858  0.06292  1.0000
  O  Te23      1.0  0.93080  0.33940  0.37917  1.0000
  O  Te24      1.0  0.99907  0.41616  0.42765  1.0000
  H   H120      1.0  0.94657  0.46551  0.10510  1.0000
  Mg  Mg12      1.0  0.97945  0.36141  0.49975  1.0000
  C   C193      1.0  0.45920  0.38064  0.67965  1.0000
  C   C194      1.0  0.48904  0.37526  0.74399  1.0000
  C  Sn25      1.0  0.51815  0.40508  0.82916  1.0000
  C  Sn26      1.0  0.51729  0.44092  0.85014  1.0000
  C   C195      1.0  0.48730  0.44600  0.78538  1.0000
  C   C196      1.0  0.45833  0.41598  0.70033  1.0000
  H   H121      1.0  0.43677  0.35740  0.61390  1.0000
  O  Te25      1.0  0.54775  0.39921  0.89261  1.0000
  O  Te26      1.0  0.54600  0.47120  0.93479  1.0000
  H   H122      1.0  0.43522  0.42015  0.65060  1.0000
  Mg  Mg13      1.0  0.58032  0.44921  0.99859  1.0000
  C   C197      1.0  0.79635  0.23084  0.73611  1.0000
  C   C198      1.0  0.80034  0.26882  0.72994  1.0000
  C  Sn27      1.0  0.76657  0.27319  0.73612  1.0000
  C  Sn28      1.0  0.72814  0.23884  0.74876  1.0000
  C   C199      1.0  0.72448  0.20098  0.75494  1.0000
  C   C200      1.0  0.75847  0.19695  0.74862  1.0000
  H   H123      1.0  0.82265  0.22772  0.73129  1.0000
  O  Te27      1.0  0.77108  0.31135  0.72977  1.0000
  O  Te28      1.0  0.69390  0.24236  0.75521  1.0000
  H   H124      1.0  0.75537  0.16754  0.75349  1.0000
  Mg  Mg14      1.0  0.71544  0.30075  0.74252  1.0000
  C   C201      1.0  0.59615  0.50811  0.64782  1.0000
  C   C202      1.0  0.63031  0.53846  0.71385  1.0000
  C  Sn29      1.0  0.62710  0.56430  0.80566  1.0000
  C  Sn30      1.0  0.58893  0.55958  0.83167  1.0000
  C   C203      1.0  0.55493  0.52910  0.76517  1.0000
  C   C204      1.0  0.55849  0.50342  0.67346  1.0000
  H   H125      1.0  0.59889  0.48822  0.57692  1.0000
  O  Te29      1.0  0.66154  0.59447  0.87071  1.0000
  O  Te30      1.0  0.58486  0.58498  0.92299  1.0000
  H   H126      1.0  0.53203  0.47991  0.62242  1.0000
  Mg  Mg15      1.0  0.64062  0.62160  0.98649  1.0000
  C   C205      1.0  0.76674  0.56737  0.73301  1.0000
  C   C206      1.0  0.72879  0.53356  0.74306  1.0000
  C  Sn31      1.0  0.72480  0.49586  0.76301  1.0000
  C  Sn32      1.0  0.75950  0.49204  0.77307  1.0000
  C   C207      1.0  0.79734  0.52605  0.76298  1.0000
  C   C208      1.0  0.80098  0.56363  0.74297  1.0000
  H   H127      1.0  0.76957  0.59645  0.71761  1.0000
  O  Te31      1.0  0.68666  0.46239  0.77278  1.0000
  O  Te32      1.0  0.75638  0.45472  0.79306  1.0000
  H   H128      1.0  0.83037  0.58980  0.73528  1.0000
  Mg  Mg16      1.0  0.69785  0.41796  0.79995  1.0000
  C   C209      1.0  0.58484  0.10405  0.37070  1.0000
  C   C210      1.0  0.62019  0.11809  0.29754  1.0000
  C  Sn33      1.0  0.62336  0.09417  0.19724  1.0000
  C  Sn34      1.0  0.59047  0.05548  0.16987  1.0000
  C   C211      1.0  0.55523  0.04171  0.24354  1.0000
  C   C212      1.0  0.55239  0.06590  0.34372  1.0000
  H   H129      1.0  0.58263  0.12277  0.44816  1.0000
  O  Te33      1.0  0.65889  0.10866  0.12514  1.0000
  O  Te34      1.0  0.59283  0.03095  0.07013  1.0000
  H   H130      1.0  0.52501  0.05502  0.40028  1.0000
  Mg  Mg17      1.0  0.65386  0.06378  0.99913  1.0000
  C   C213      1.0  0.38179  0.43188  0.33685  1.0000
  C   C214      1.0  0.36565  0.45275  0.26740  1.0000
  C  Sn35      1.0  0.38896  0.48359  0.17593  1.0000
  C  Sn36      1.0  0.42915  0.49366  0.15375  1.0000
  C   C215      1.0  0.44501  0.47258  0.22365  1.0000
  C   C216      1.0  0.42142  0.44177  0.31499  1.0000
  H   H131      1.0  0.36354  0.40802  0.40746  1.0000
  O  Te35      1.0  0.37237  0.50415  0.10743  1.0000
  O  Te36      1.0  0.45311  0.52435  0.06286  1.0000
  H   H132      1.0  0.43392  0.42560  0.36868  1.0000
  Mg  Mg18      1.0  0.42324  0.54338  0.99377  1.0000
