data_image0
_chemical_formula_structural       C80H40O8N8C8H12C80H40O8N8C8H12SnCSn2CSnTe4Mg2SnCSn2CSnTe4Mg2SnCSn2CSnTe4Mg2SnCSn2CSnTe4Mg2SnCSn2CSnTe4Mg2SnCSn2CSnTe4Mg2SnCSn2CSnTe4Mg2SnCSn2CSnTe4Mg2
_chemical_formula_sum              "C192 H104 O16 N16 Sn32 Te32 Mg16"
_cell_length_a       33.9465
_cell_length_b       34.8211
_cell_length_c       10.855
_cell_angle_alpha    85.0198
_cell_angle_beta     89.4342
_cell_angle_gamma    89.7783

_symmetry_space_group_name_H-M    'P1'
_space_group_IT_number       1

loop_
  _space_group_symop_operation_xyz
  'x, y, z'

loop_
  _atom_site_type_symbol
  _atom_site_label
  _atom_site_symmetry_multiplicity
  _atom_site_fract_x
  _atom_site_fract_y
  _atom_site_fract_z
  _atom_site_occupancy
  C   C1        1.0  0.46196  0.96139  0.99057  1.0000
  C   C2        1.0  0.96436  0.46022  0.01024  1.0000
  C   C3        1.0  0.53908  0.03968  0.00138  1.0000
  C   C4        1.0  0.03591  0.54321  0.01242  1.0000
  C   C5        1.0  0.46598  0.04359  0.00042  1.0000
  C   C6        1.0  0.96283  0.54280  0.00859  1.0000
  C   C7        1.0  0.53498  0.95785  0.00357  1.0000
  C   C8        1.0  0.03756  0.46142  0.01163  1.0000
  C   C9        1.0  0.42956  0.02444  0.98316  1.0000
  C   C10       1.0  0.92759  0.52102  0.99604  1.0000
  C   C11       1.0  0.57192  0.97755  0.99586  1.0000
  C   C12       1.0  0.07302  0.48354  0.00414  1.0000
  C   C13       1.0  0.42778  0.98543  0.97558  1.0000
  C   C14       1.0  0.92829  0.48165  0.99819  1.0000
  C   C15       1.0  0.57383  0.01677  0.99277  1.0000
  C   C16       1.0  0.07231  0.52266  0.00558  1.0000
  C   C17       1.0  0.46818  0.08416  0.00697  1.0000
  C   C18       1.0  0.96274  0.58355  0.01281  1.0000
  C   C19       1.0  0.53268  0.91707  0.00932  1.0000
  C   C20       1.0  0.03824  0.42064  0.01402  1.0000
  C   C21       1.0  0.46052  0.92047  0.99118  1.0000
  C   C22       1.0  0.96589  0.41938  0.01397  1.0000
  C   C23       1.0  0.54046  0.08034  0.00383  1.0000
  C   C24       1.0  0.03497  0.58376  0.01591  1.0000
  C   C25       1.0  0.92554  0.60596  0.01635  1.0000
  C   C26       1.0  0.56853  0.89307  0.02370  1.0000
  C   C27       1.0  0.92998  0.39532  0.02151  1.0000
  C   C28       1.0  0.07191  0.60595  0.02352  1.0000
  C   C29       1.0  0.89650  0.59699  0.10727  1.0000
  C   C30       1.0  0.59512  0.89735  0.12037  1.0000
  C   C31       1.0  0.90346  0.39612  0.12103  1.0000
  C   C32       1.0  0.09593  0.60052  0.12802  1.0000
  C   C33       1.0  0.86164  0.61824  0.10917  1.0000
  C   C34       1.0  0.62862  0.87422  0.13355  1.0000
  C   C35       1.0  0.87110  0.37144  0.13068  1.0000
  C   C36       1.0  0.12964  0.62280  0.13754  1.0000
  C   C37       1.0  0.85469  0.64903  0.01986  1.0000
  C   C38       1.0  0.63674  0.84672  0.04924  1.0000
  C   C39       1.0  0.86332  0.34644  0.03889  1.0000
  C   C40       1.0  0.14110  0.64974  0.04000  1.0000
  C   C41       1.0  0.88392  0.65860  0.93010  1.0000
  C   C42       1.0  0.61040  0.84266  0.95151  1.0000
  C   C43       1.0  0.89030  0.34538  0.94014  1.0000
  C   C44       1.0  0.11783  0.65406  0.93333  1.0000
  C   C45       1.0  0.91873  0.63756  0.92905  1.0000
  C   C46       1.0  0.57671  0.86534  0.93969  1.0000
  C   C47       1.0  0.92323  0.36917  0.93242  1.0000
  C   C48       1.0  0.08340  0.63289  0.92618  1.0000
  C   C49       1.0  0.32912  0.17945  0.03667  1.0000
  C   C50       1.0  0.81832  0.67148  0.02395  1.0000
  C   C51       1.0  0.67226  0.82323  0.06555  1.0000
  C   C52       1.0  0.18386  0.33454  0.02615  1.0000
  C   C53       1.0  0.32306  0.82413  0.98083  1.0000
  C   C54       1.0  0.82755  0.32281  0.04941  1.0000
  C   C55       1.0  0.67915  0.17370  0.01607  1.0000
  C   C56       1.0  0.17666  0.67277  0.05122  1.0000
  C   C57       1.0  0.78214  0.28075  0.96764  1.0000
  C   C58       1.0  0.29300  0.76487  0.95094  1.0000
  C   C59       1.0  0.22700  0.71323  0.96260  1.0000
  C   C60       1.0  0.71565  0.23057  0.96856  1.0000
  C   C61       1.0  0.77727  0.72295  0.95995  1.0000
  C   C62       1.0  0.28970  0.23386  0.96682  1.0000
  C   C63       1.0  0.22730  0.28938  0.95226  1.0000
  C   C64       1.0  0.71316  0.77446  0.98792  1.0000
  C   C65       1.0  0.75881  0.27862  0.86132  1.0000
  C   C66       1.0  0.28848  0.73681  0.86475  1.0000
  C   C67       1.0  0.25606  0.71254  0.86803  1.0000
  C   C68       1.0  0.72544  0.25582  0.86371  1.0000
  C   C69       1.0  0.74544  0.72444  0.87617  1.0000
  C   C70       1.0  0.29050  0.26719  0.88148  1.0000
  C   C71       1.0  0.25945  0.29316  0.86928  1.0000
  C   C72       1.0  0.71391  0.74907  0.89225  1.0000
  C   C73       1.0  0.74020  0.23120  0.07322  1.0000
  C   C74       1.0  0.23262  0.73881  0.05564  1.0000
  C   C75       1.0  0.26520  0.76361  0.04996  1.0000
  C   C76       1.0  0.77148  0.25725  0.07542  1.0000
  C   C77       1.0  0.74574  0.77338  0.07037  1.0000
  C   C78       1.0  0.22645  0.25725  0.04095  1.0000
  C   C79       1.0  0.25653  0.22928  0.04762  1.0000
  C   C80       1.0  0.77719  0.74765  0.05684  1.0000
  H   H1        1.0  0.40301  0.04191  0.97247  1.0000
  H   H2        1.0  0.89973  0.53634  0.98399  1.0000
  H   H3        1.0  0.59881  0.96086  0.98860  1.0000
  H   H4        1.0  0.10088  0.46847  0.99635  1.0000
  H   H5        1.0  0.39974  0.97223  0.95753  1.0000
  H   H6        1.0  0.90110  0.46591  0.98783  1.0000
  H   H7        1.0  0.60216  0.03113  0.98267  1.0000
  H   H8        1.0  0.09957  0.53901  0.99879  1.0000
  H   H9        1.0  0.90169  0.57335  0.17712  1.0000
  H   H10       1.0  0.58910  0.91879  0.18535  1.0000
  H   H11       1.0  0.90944  0.41534  0.19228  1.0000
  H   H12       1.0  0.08726  0.57918  0.20223  1.0000
  H   H13       1.0  0.83976  0.61174  0.18161  1.0000
  H   H14       1.0  0.64874  0.87707  0.20984  1.0000
  H   H15       1.0  0.85139  0.37148  0.21001  1.0000
  H   H16       1.0  0.14699  0.61960  0.22148  1.0000
  H   H17       1.0  0.87819  0.68253  0.86169  1.0000
  H   H18       1.0  0.61752  0.82162  0.88594  1.0000
  H   H19       1.0  0.88469  0.32558  0.87048  1.0000
  H   H20       1.0  0.12711  0.67478  0.85820  1.0000
  H   H21       1.0  0.94128  0.64510  0.85980  1.0000
  H   H22       1.0  0.55688  0.86272  0.86276  1.0000
  H   H23       1.0  0.94430  0.36840  0.85661  1.0000
  H   H24       1.0  0.06516  0.63678  0.84444  1.0000
  H   H25       1.0  0.30898  0.17033  0.11223  1.0000
  H   H26       1.0  0.79771  0.66332  0.10014  1.0000
  H   H27       1.0  0.69053  0.82739  0.14535  1.0000
  H   H28       1.0  0.20103  0.33509  0.11099  1.0000
  H   H29       1.0  0.29624  0.83456  0.02491  1.0000
  H   H30       1.0  0.81240  0.32159  0.13885  1.0000
  H   H31       1.0  0.70330  0.15996  0.06996  1.0000
  H   H32       1.0  0.18803  0.67445  0.14427  1.0000
  H   H33       1.0  0.76757  0.29649  0.77896  1.0000
  H   H34       1.0  0.31077  0.73485  0.79265  1.0000
  H   H35       1.0  0.25213  0.69219  0.79779  1.0000
  H   H36       1.0  0.70622  0.25650  0.78378  1.0000
  H   H37       1.0  0.74722  0.70715  0.79760  1.0000
  H   H38       1.0  0.31551  0.26971  0.81835  1.0000
  H   H39       1.0  0.26041  0.31741  0.79894  1.0000
  H   H40       1.0  0.68989  0.75206  0.82661  1.0000
  O   O1        1.0  0.73592  0.20835  0.18355  1.0000
  O   O2        1.0  0.20576  0.74035  0.15089  1.0000
  O   O3        1.0  0.26833  0.78569  0.15046  1.0000
  O   O4        1.0  0.79084  0.25984  0.18315  1.0000
  O   O5        1.0  0.74596  0.79651  0.16587  1.0000
  O   O6        1.0  0.19454  0.24906  0.12044  1.0000
  O   O7        1.0  0.25414  0.19854  0.13596  1.0000
  O   O8        1.0  0.80757  0.74867  0.14078  1.0000
  N   N1        1.0  0.32256  0.20980  0.96085  1.0000
  N   N2        1.0  0.81051  0.69963  0.94251  1.0000
  N   N3        1.0  0.68016  0.79822  0.98636  1.0000
  N   N4        1.0  0.19488  0.31429  0.93792  1.0000
  N   N5        1.0  0.32475  0.79057  0.93609  1.0000
  N   N6        1.0  0.81491  0.30494  0.95759  1.0000
  N   N7        1.0  0.68196  0.20811  0.95934  1.0000
  N   N8        1.0  0.19394  0.68978  0.95481  1.0000
  C   C81       1.0  0.50527  0.10139  0.00632  1.0000
  C   C82       1.0  0.99878  0.60307  0.01492  1.0000
  C   C83       1.0  0.49590  0.89954  0.00145  1.0000
  C   C84       1.0  0.00253  0.40070  0.01374  1.0000
  C   C85       1.0  0.49938  0.98005  0.99919  1.0000
  C   C86       1.0  0.00047  0.48128  0.01105  1.0000
  C   C87       1.0  0.50147  0.02112  0.00088  1.0000
  C   C88       1.0  0.99967  0.52240  0.01088  1.0000
  H   H41       1.0  0.50693  0.13233  0.01305  1.0000
  H   H42       1.0  0.99887  0.63408  0.02183  1.0000
  H   H43       1.0  0.49423  0.86823  0.00899  1.0000
  H   H44       1.0  0.00307  0.36934  0.01952  1.0000
  H   H45       1.0  0.29629  0.79226  0.15720  1.0000
  H   H46       1.0  0.77321  0.25058  0.24922  1.0000
  H   H47       1.0  0.70882  0.19930  0.19353  1.0000
  H   H48       1.0  0.21811  0.75539  0.21138  1.0000
  H   H49       1.0  0.23328  0.20360  0.19585  1.0000
  H   H50       1.0  0.82876  0.73204  0.11653  1.0000
  H   H51       1.0  0.76641  0.78599  0.22238  1.0000
  H   H52       1.0  0.17334  0.26665  0.09825  1.0000
  C   C89       1.0  0.46142  0.95843  0.50256  1.0000
  C   C90       1.0  0.96317  0.45707  0.49167  1.0000
  C   C91       1.0  0.53755  0.03850  0.49759  1.0000
  C   C92       1.0  0.03506  0.54027  0.49408  1.0000
  C   C93       1.0  0.46434  0.04090  0.49920  1.0000
  C   C94       1.0  0.96197  0.53921  0.48972  1.0000
  C   C95       1.0  0.53464  0.95599  0.51148  1.0000
  C   C96       1.0  0.03636  0.45778  0.49260  1.0000
  C   C97       1.0  0.42829  0.02107  0.48337  1.0000
  C   C98       1.0  0.92644  0.51756  0.48106  1.0000
  C   C99       1.0  0.57109  0.97634  0.49628  1.0000
  C   C100      1.0  0.07185  0.48001  0.48921  1.0000
  C   C101      1.0  0.42694  0.98185  0.48375  1.0000
  C   C102      1.0  0.92696  0.47828  0.48315  1.0000
  C   C103      1.0  0.57236  0.01572  0.48636  1.0000
  C   C104      1.0  0.07125  0.51927  0.49009  1.0000
  C   C105      1.0  0.46586  0.08156  0.50365  1.0000
  C   C106      1.0  0.96191  0.57990  0.49127  1.0000
  C   C107      1.0  0.53295  0.91512  0.51922  1.0000
  C   C108      1.0  0.03663  0.41687  0.49327  1.0000
  C   C109      1.0  0.46037  0.91740  0.50810  1.0000
  C   C110      1.0  0.96413  0.41619  0.49521  1.0000
  C   C111      1.0  0.53836  0.07945  0.49758  1.0000
  C   C112      1.0  0.03407  0.58104  0.49561  1.0000
  C   C113      1.0  0.42996  0.10559  0.50632  1.0000
  C   C114      1.0  0.56896  0.89088  0.52484  1.0000
  C   C115      1.0  0.07412  0.39466  0.50032  1.0000
  C   C116      1.0  0.07064  0.60360  0.50853  1.0000
  C   C117      1.0  0.39810  0.09542  0.58651  1.0000
  C   C118      1.0  0.59708  0.89268  0.61802  1.0000
  C   C119      1.0  0.10027  0.39816  0.59800  1.0000
  C   C120      1.0  0.09330  0.59709  0.61577  1.0000
  C   C121      1.0  0.36386  0.11759  0.58249  1.0000
  C   C122      1.0  0.63022  0.86894  0.62140  1.0000
  C   C123      1.0  0.13534  0.37732  0.60656  1.0000
  C   C124      1.0  0.12743  0.61826  0.63122  1.0000
  C   C125      1.0  0.36071  0.15111  0.50148  1.0000
  C   C126      1.0  0.63639  0.84290  0.53133  1.0000
  C   C127      1.0  0.14575  0.35285  0.51544  1.0000
  C   C128      1.0  0.14064  0.64558  0.53727  1.0000
  C   C129      1.0  0.39283  0.16194  0.42288  1.0000
  C   C130      1.0  0.60881  0.84164  0.43608  1.0000
  C   C131      1.0  0.11960  0.34889  0.41817  1.0000
  C   C132      1.0  0.11785  0.65232  0.43053  1.0000
  C   C133      1.0  0.42675  0.13951  0.42561  1.0000
  C   C134      1.0  0.57555  0.86499  0.43414  1.0000
  C   C135      1.0  0.08427  0.36916  0.41147  1.0000
  C   C136      1.0  0.08313  0.63207  0.41704  1.0000
  C   C137      1.0  0.32472  0.17397  0.50364  1.0000
  C   C138      1.0  0.81616  0.66414  0.50649  1.0000
  C   C139      1.0  0.67072  0.81758  0.54167  1.0000
  C   C140      1.0  0.18246  0.33097  0.52489  1.0000
  C   C141      1.0  0.32241  0.82073  0.49552  1.0000
  C   C142      1.0  0.81869  0.33028  0.53224  1.0000
  C   C143      1.0  0.67514  0.17797  0.47996  1.0000
  C   C144      1.0  0.17690  0.66740  0.55124  1.0000
  C   C145      1.0  0.77129  0.29105  0.45193  1.0000
  C   C146      1.0  0.29246  0.76089  0.47095  1.0000
  C   C147      1.0  0.22702  0.70913  0.46861  1.0000
  C   C148      1.0  0.70621  0.23851  0.45594  1.0000
  C   C149      1.0  0.77442  0.71556  0.44593  1.0000
  C   C150      1.0  0.29049  0.23208  0.45244  1.0000
  C   C151      1.0  0.22672  0.28588  0.44792  1.0000
  C   C152      1.0  0.70975  0.76752  0.46804  1.0000
  C   C153      1.0  0.73720  0.29988  0.38078  1.0000
  C   C154      1.0  0.29142  0.73091  0.39011  1.0000
  C   C155      1.0  0.25905  0.70682  0.38536  1.0000
  C   C156      1.0  0.70528  0.27482  0.38469  1.0000
  C   C157      1.0  0.74494  0.71923  0.35558  1.0000
  C   C158      1.0  0.28080  0.25498  0.34347  1.0000
  C   C159      1.0  0.24811  0.27912  0.34015  1.0000
  C   C160      1.0  0.71287  0.74317  0.37072  1.0000
  C   C161      1.0  0.74023  0.23009  0.53105  1.0000
  C   C162      1.0  0.22856  0.73752  0.55509  1.0000
  C   C163      1.0  0.26001  0.76377  0.55412  1.0000
  C   C164      1.0  0.77228  0.25554  0.52800  1.0000
  C   C165      1.0  0.74055  0.76455  0.55642  1.0000
  C   C166      1.0  0.23817  0.26453  0.55861  1.0000
  C   C167      1.0  0.26788  0.23629  0.55977  1.0000
  C   C168      1.0  0.77189  0.73831  0.54650  1.0000
  H   H53       1.0  0.40156  0.03795  0.46778  1.0000
  H   H54       1.0  0.89850  0.53286  0.47298  1.0000
  H   H55       1.0  0.59804  0.95965  0.48947  1.0000
  H   H56       1.0  0.09992  0.46514  0.48431  1.0000
  H   H57       1.0  0.39912  0.96817  0.46656  1.0000
  H   H58       1.0  0.89965  0.46241  0.47597  1.0000
  H   H59       1.0  0.60037  0.03009  0.46721  1.0000
  H   H60       1.0  0.09862  0.53544  0.48730  1.0000
  H   H61       1.0  0.40033  0.07018  0.65246  1.0000
  H   H62       1.0  0.59258  0.91241  0.68876  1.0000
  H   H63       1.0  0.09205  0.41669  0.66913  1.0000
  H   H64       1.0  0.08364  0.57538  0.68734  1.0000
  H   H65       1.0  0.33913  0.10920  0.64330  1.0000
  H   H66       1.0  0.65182  0.86978  0.69447  1.0000
  H   H67       1.0  0.15494  0.37958  0.68405  1.0000
  H   H68       1.0  0.14423  0.61351  0.71575  1.0000
  H   H69       1.0  0.39008  0.18753  0.35855  1.0000
  H   H70       1.0  0.61433  0.82230  0.36447  1.0000
  H   H71       1.0  0.12797  0.32894  0.35082  1.0000
  H   H72       1.0  0.12804  0.67397  0.35947  1.0000
  H   H73       1.0  0.45076  0.14745  0.36143  1.0000
  H   H74       1.0  0.55436  0.86434  0.36032  1.0000
  H   H75       1.0  0.06424  0.36606  0.33590  1.0000
  H   H76       1.0  0.06605  0.63747  0.33346  1.0000
  H   H77       1.0  0.29928  0.16017  0.55256  1.0000
  H   H78       1.0  0.79530  0.65383  0.57970  1.0000
  H   H79       1.0  0.68992  0.82068  0.62021  1.0000
  H   H80       1.0  0.19967  0.33326  0.60830  1.0000
  H   H81       1.0  0.29471  0.83413  0.52533  1.0000
  H   H82       1.0  0.80284  0.32921  0.62047  1.0000
  H   H83       1.0  0.70231  0.16319  0.51200  1.0000
  H   H84       1.0  0.18829  0.66801  0.64479  1.0000
  H   H85       1.0  0.73591  0.32670  0.32074  1.0000
  H   H86       1.0  0.31657  0.72709  0.32822  1.0000
  H   H87       1.0  0.25823  0.68464  0.31948  1.0000
  H   H88       1.0  0.67887  0.28282  0.33095  1.0000
  H   H89       1.0  0.74734  0.70179  0.27718  1.0000
  H   H90       1.0  0.29788  0.25016  0.26125  1.0000
  H   H91       1.0  0.23791  0.29333  0.25396  1.0000
  H   H92       1.0  0.69065  0.74728  0.29968  1.0000
  O   O9        1.0  0.74613  0.19626  0.61144  1.0000
  O   O10       1.0  0.19770  0.73997  0.63762  1.0000
  O   O11       1.0  0.25684  0.79097  0.64072  1.0000
  O   O12       1.0  0.80449  0.24596  0.59973  1.0000
  O   O13       1.0  0.74035  0.78596  0.65569  1.0000
  O   O14       1.0  0.21697  0.26922  0.66343  1.0000
  O   O15       1.0  0.27419  0.21494  0.67135  1.0000
  O   O16       1.0  0.80034  0.73903  0.63673  1.0000
  N   N9        1.0  0.32358  0.20857  0.44866  1.0000
  N   N10       1.0  0.80829  0.69341  0.42935  1.0000
  N   N11       1.0  0.67715  0.79231  0.46272  1.0000
  N   N12       1.0  0.19382  0.31029  0.43729  1.0000
  N   N13       1.0  0.32508  0.78553  0.46337  1.0000
  N   N14       1.0  0.80456  0.31455  0.43835  1.0000
  N   N15       1.0  0.67319  0.21490  0.44622  1.0000
  N   N16       1.0  0.19443  0.68524  0.45693  1.0000
  C   C169      1.0  0.50253  0.09947  0.50315  1.0000
  C   C170      1.0  0.99763  0.59993  0.49074  1.0000
  C   C171      1.0  0.49626  0.89708  0.51643  1.0000
  C   C172      1.0  0.00062  0.39721  0.49247  1.0000
  C   C173      1.0  0.49868  0.97774  0.50670  1.0000
  C   C174      1.0  0.99948  0.47802  0.49096  1.0000
  C   C175      1.0  0.50022  0.01903  0.50275  1.0000
  C   C176      1.0  0.99890  0.51920  0.49100  1.0000
  H   H93       1.0  0.50327  0.13041  0.51084  1.0000
  H   H94       1.0  0.99690  0.63105  0.49454  1.0000
  H   H95       1.0  0.49582  0.86571  0.52425  1.0000
  H   H96       1.0  0.00108  0.36585  0.49692  1.0000
  H   H97       1.0  0.28396  0.79739  0.66221  1.0000
  H   H98       1.0  0.79761  0.22232  0.65144  1.0000
  H   H99       1.0  0.72385  0.19420  0.66848  1.0000
  H   H100      1.0  0.20623  0.75687  0.70041  1.0000
  H   H101      1.0  0.30173  0.20651  0.67389  1.0000
  H   H102      1.0  0.82475  0.72654  0.61157  1.0000
  H   H103      1.0  0.75937  0.77451  0.71402  1.0000
  H   H104      1.0  0.23041  0.25466  0.73206  1.0000
  C  Sn1       1.0  0.91498  0.64525  0.41732  1.0000
  C   C177      1.0  0.92749  0.61481  0.50025  1.0000
  C  Sn2       1.0  0.90077  0.59583  0.58295  1.0000
  C  Sn3       1.0  0.86069  0.60750  0.58272  1.0000
  C   C178      1.0  0.84820  0.63792  0.49982  1.0000
  C  Sn4       1.0  0.87490  0.65692  0.41709  1.0000
  O  Te1       1.0  0.94220  0.66382  0.33546  1.0000
  O  Te2       1.0  0.91398  0.56548  0.66502  1.0000
  O  Te3       1.0  0.83347  0.58890  0.66468  1.0000
  O  Te4       1.0  0.86171  0.68725  0.33505  1.0000
  Mg  Mg1       1.0  0.86568  0.54916  0.75872  1.0000
  Mg  Mg2       1.0  0.90998  0.70357  0.24127  1.0000
  C  Sn5       1.0  0.41412  0.86213  0.39498  1.0000
  C   C179      1.0  0.41821  0.89527  0.45766  1.0000
  C  Sn6       1.0  0.39185  0.90281  0.55226  1.0000
  C  Sn7       1.0  0.36076  0.87667  0.58497  1.0000
  C   C180      1.0  0.35669  0.84356  0.52232  1.0000
  C  Sn8       1.0  0.38304  0.83599  0.42768  1.0000
  O  Te5       1.0  0.44082  0.85517  0.30070  1.0000
  O  Te6       1.0  0.39653  0.93614  0.61356  1.0000
  O  Te7       1.0  0.33406  0.88367  0.67933  1.0000
  O  Te8       1.0  0.37837  0.80269  0.36642  1.0000
  Mg  Mg3       1.0  0.35268  0.93296  0.73562  1.0000
  Mg  Mg4       1.0  0.42221  0.80582  0.24440  1.0000
  C  Sn9       1.0  0.40291  0.84009  0.92617  1.0000
  C   C181      1.0  0.36719  0.84293  0.98987  1.0000
  C  Sn10      1.0  0.36057  0.90362  0.04492  1.0000
  C  Sn11      1.0  0.38716  0.93508  0.03605  1.0000
  C   C182      1.0  0.41981  0.90518  0.97236  1.0000
  C  Sn12      1.0  0.42950  0.87155  0.91730  1.0000
  O  Te9       1.0  0.41196  0.80618  0.87184  1.0000
  O  Te10      1.0  0.32469  0.90578  0.10815  1.0000
  O  Te11      1.0  0.37808  0.96900  0.09045  1.0000
  O  Te12      1.0  0.46535  0.86938  0.85408  1.0000
  Mg  Mg5       1.0  0.32565  0.95807  0.16660  1.0000
  Mg  Mg6       1.0  0.46441  0.81712  0.79555  1.0000
  C  Sn13      1.0  0.86713  0.38909  0.60250  1.0000
  C   C183      1.0  0.85352  0.36287  0.52238  1.0000
  C  Sn14      1.0  0.87888  0.34867  0.43481  1.0000
  C  Sn15      1.0  0.91869  0.36093  0.42719  1.0000
  C   C184      1.0  0.93229  0.38713  0.50729  1.0000
  C  Sn16      1.0  0.90695  0.40135  0.59488  1.0000
  O  Te13      1.0  0.84126  0.40290  0.68933  1.0000
  O  Te14      1.0  0.86458  0.32249  0.35569  1.0000
  O  Te15      1.0  0.94456  0.34709  0.34026  1.0000
  O  Te16      1.0  0.92123  0.42751  0.67398  1.0000
  Mg  Mg7       1.0  0.91122  0.31187  0.25294  1.0000
  Mg  Mg8       1.0  0.87462  0.43813  0.77680  1.0000
  C  Sn17      1.0  0.08635  0.35952  0.93816  1.0000
  C   C185      1.0  0.07635  0.41253  0.02105  1.0000
  C  Sn18      1.0  0.10276  0.42784  0.10153  1.0000
  C  Sn19      1.0  0.14306  0.41700  0.09907  1.0000
  C   C186      1.0  0.15609  0.39106  0.01620  1.0000
  C  Sn20      1.0  0.12664  0.34868  0.93569  1.0000
  O  Te17      1.0  0.05943  0.34458  0.85853  1.0000
  O  Te18      1.0  0.08903  0.45373  0.18361  1.0000
  O  Te19      1.0  0.16998  0.43196  0.17879  1.0000
  O  Te20      1.0  0.14037  0.32281  0.85364  1.0000
  Mg  Mg9       1.0  0.13708  0.46625  0.27379  1.0000
  Mg  Mg10      1.0  0.09235  0.31029  0.76338  1.0000
  C  Sn21      1.0  0.38141  0.12286  0.13943  1.0000
  C   C187      1.0  0.37172  0.15591  0.06329  1.0000
  C  Sn22      1.0  0.38850  0.13742  0.95093  1.0000
  C  Sn23      1.0  0.41861  0.11241  0.91385  1.0000
  C   C188      1.0  0.42828  0.07938  0.98996  1.0000
  C  Sn24      1.0  0.41153  0.09785  0.10235  1.0000
  O  Te21      1.0  0.36121  0.11487  0.25136  1.0000
  O  Te22      1.0  0.37830  0.17064  0.87640  1.0000
  O  Te23      1.0  0.43882  0.12042  0.80182  1.0000
  O  Te24      1.0  0.42171  0.06465  0.17685  1.0000
  Mg  Mg11      1.0  0.41429  0.16912  0.73225  1.0000
  Mg  Mg12      1.0  0.38573  0.06613  0.32097  1.0000
  C  Sn25      1.0  0.64049  0.10294  0.07060  1.0000
  C   C189      1.0  0.64584  0.10957  0.99554  1.0000
  C  Sn26      1.0  0.61599  0.12915  0.92800  1.0000
  C  Sn27      1.0  0.57693  0.11477  0.93569  1.0000
  C   C190      1.0  0.57160  0.10816  0.01073  1.0000
  C  Sn28      1.0  0.60143  0.08856  0.07830  1.0000
  O  Te25      1.0  0.67079  0.08384  0.13732  1.0000
  O  Te26      1.0  0.62510  0.16276  0.85356  1.0000
  O  Te27      1.0  0.54663  0.13390  0.86889  1.0000
  O  Te28      1.0  0.59233  0.05497  0.15272  1.0000
  Mg  Mg13      1.0  0.57371  0.17853  0.78040  1.0000
  Mg  Mg14      1.0  0.64369  0.03919  0.22595  1.0000
  C  Sn29      1.0  0.59313  0.16575  0.44219  1.0000
  C   C191      1.0  0.62965  0.15972  0.49912  1.0000
  C  Sn30      1.0  0.64099  0.12277  0.54625  1.0000
  C  Sn31      1.0  0.61531  0.09118  0.53621  1.0000
  C   C192      1.0  0.57882  0.09722  0.47929  1.0000
  C  Sn32      1.0  0.56745  0.13417  0.43215  1.0000
  O  Te29      1.0  0.58241  0.20294  0.39573  1.0000
  O  Te30      1.0  0.67763  0.11745  0.60281  1.0000
  O  Te31      1.0  0.62607  0.05397  0.58274  1.0000
  O  Te32      1.0  0.53084  0.13949  0.37560  1.0000
  Mg  Mg15      1.0  0.67899  0.06135  0.65174  1.0000
  Mg  Mg16      1.0  0.52946  0.19557  0.32658  1.0000
