data_image0
_chemical_formula_structural       C32H16N8C8H4C4NCH3C2NC3H3C4NCH3C2NC3H3C4NCH3C2NC3H3C4NCH3C2NC3H3C32H16N8C8H4C4NCH3C2NC3H3C4NCH3C2NC3H3C4NCH3C2NC3H3C4NCH3C2NC3H3SnCSn2CSnTe4Mg2SnCSn2CSnTe4Mg2SnCSn2CSnTe4Mg2SnCSn2CSnTe4Mg2SnCSn2CSnTe4Mg2SnCSn2CSnTe4Mg2SnCSn2CSnTe4Mg2SnCSn2CSnTe4Mg2SnCSn2CSnTe4Mg2SnCSn2CSnTe4Mg2SnCSn2CSnTe4Mg2SnCSn2CSnTe4Mg2SnCSn2CSnTe4Mg2SnCSn2CSnTe4Mg2SnCSn2CSnTe4Mg2SnCSn2CSnTe4Mg2
_chemical_formula_sum              "C192 H88 N32 Sn64 Te64 Mg32"
_cell_length_a       37.9516
_cell_length_b       42.6969
_cell_length_c       8.08325
_cell_angle_alpha    90.5651
_cell_angle_beta     88.5915
_cell_angle_gamma    90.0067

_symmetry_space_group_name_H-M    'P1'
_space_group_IT_number       1

loop_
  _space_group_symop_operation_xyz
  'x, y, z'

loop_
  _atom_site_type_symbol
  _atom_site_label
  _atom_site_symmetry_multiplicity
  _atom_site_fract_x
  _atom_site_fract_y
  _atom_site_fract_z
  _atom_site_occupancy
  C   C1        1.0  0.96838  0.46676  0.16747  1.0000
  C   C2        1.0  0.46824  0.96751  0.29452  1.0000
  C   C3        1.0  0.03485  0.53302  0.17936  1.0000
  C   C4        1.0  0.53363  0.03470  0.30289  1.0000
  C   C5        1.0  0.96931  0.53360  0.16676  1.0000
  C   C6        1.0  0.46817  0.03445  0.29905  1.0000
  C   C7        1.0  0.03383  0.46589  0.18411  1.0000
  C   C8        1.0  0.53381  0.96753  0.29662  1.0000
  C   C9        1.0  0.93784  0.51643  0.13528  1.0000
  C   C10       1.0  0.43678  0.01696  0.27036  1.0000
  C   C11       1.0  0.06603  0.48298  0.16666  1.0000
  C   C12       1.0  0.56555  0.98521  0.27518  1.0000
  C   C13       1.0  0.93740  0.48442  0.13528  1.0000
  C   C14       1.0  0.43683  0.98497  0.26814  1.0000
  C   C15       1.0  0.06650  0.51499  0.16277  1.0000
  C   C16       1.0  0.56540  0.01723  0.27811  1.0000
  C   C17       1.0  0.96965  0.56673  0.18685  1.0000
  C   C18       1.0  0.46829  0.06761  0.31555  1.0000
  C   C19       1.0  0.03269  0.43281  0.20242  1.0000
  C   C20       1.0  0.53333  0.93429  0.30814  1.0000
  C   C21       1.0  0.96788  0.43374  0.18594  1.0000
  C   C22       1.0  0.46831  0.93433  0.30847  1.0000
  C   C23       1.0  0.03476  0.56625  0.19555  1.0000
  C   C24       1.0  0.53324  0.06794  0.31896  1.0000
  C   C25       1.0  0.84998  0.64973  0.26674  1.0000
  C   C26       1.0  0.34424  0.14550  0.34517  1.0000
  C   C27       1.0  0.15022  0.34889  0.28197  1.0000
  C   C28       1.0  0.65453  0.85313  0.33670  1.0000
  C   C29       1.0  0.85052  0.34901  0.24234  1.0000
  C   C30       1.0  0.34480  0.85552  0.35442  1.0000
  C   C31       1.0  0.15386  0.64976  0.25413  1.0000
  C   C32       1.0  0.65699  0.14652  0.34729  1.0000
  H   H1        1.0  0.91385  0.52927  0.11062  1.0000
  H   H2        1.0  0.41253  0.02953  0.24759  1.0000
  H   H3        1.0  0.09062  0.47001  0.15537  1.0000
  H   H4        1.0  0.59030  0.97286  0.25428  1.0000
  H   H5        1.0  0.91312  0.47194  0.11030  1.0000
  H   H6        1.0  0.41263  0.97227  0.24450  1.0000
  H   H7        1.0  0.09149  0.52711  0.14624  1.0000
  H   H8        1.0  0.58990  0.03001  0.25976  1.0000
  H   H9        1.0  0.83177  0.64522  0.37174  1.0000
  H   H10       1.0  0.32421  0.14034  0.44183  1.0000
  H   H11       1.0  0.16841  0.35407  0.38246  1.0000
  H   H12       1.0  0.67372  0.85857  0.43265  1.0000
  H   H13       1.0  0.83150  0.35295  0.34523  1.0000
  H   H14       1.0  0.32478  0.86126  0.45066  1.0000
  H   H15       1.0  0.17156  0.64602  0.35772  1.0000
  H   H16       1.0  0.67594  0.14164  0.44461  1.0000
  N   N1        1.0  0.84773  0.67412  0.17373  1.0000
  N   N2        1.0  0.34148  0.16860  0.24417  1.0000
  N   N3        1.0  0.15298  0.32435  0.18706  1.0000
  N   N4        1.0  0.65793  0.82915  0.23859  1.0000
  N   N5        1.0  0.84980  0.32429  0.14862  1.0000
  N   N6        1.0  0.34201  0.83163  0.25619  1.0000
  N   N7        1.0  0.15642  0.67374  0.15758  1.0000
  N   N8        1.0  0.66092  0.16946  0.24527  1.0000
  C   C33       1.0  0.00220  0.58178  0.20154  1.0000
  C   C34       1.0  0.99981  0.41801  0.20455  1.0000
  C   C35       1.0  0.50059  0.08323  0.32612  1.0000
  C   C36       1.0  0.50074  0.91894  0.31642  1.0000
  C   C37       1.0  0.00139  0.48303  0.17441  1.0000
  C   C38       1.0  0.00187  0.51661  0.17336  1.0000
  C   C39       1.0  0.50101  0.98425  0.29801  1.0000
  C   C40       1.0  0.50094  0.01783  0.30079  1.0000
  H   H17       1.0  0.00209  0.60689  0.22517  1.0000
  H   H18       1.0  0.99901  0.39300  0.22785  1.0000
  H   H19       1.0  0.50016  0.10849  0.34486  1.0000
  H   H20       1.0  0.50074  0.89375  0.33496  1.0000
  C   C41       1.0  0.17982  0.30223  0.20221  1.0000
  C   C42       1.0  0.17358  0.27225  0.13593  1.0000
  C   C43       1.0  0.19930  0.24929  0.14627  1.0000
  C   C44       1.0  0.23153  0.25680  0.21878  1.0000
  N   N9        1.0  0.23854  0.28583  0.27696  1.0000
  C   C45       1.0  0.21335  0.30756  0.26929  1.0000
  H   H21       1.0  0.14862  0.26786  0.07664  1.0000
  H   H22       1.0  0.19514  0.22606  0.09369  1.0000
  H   H23       1.0  0.22027  0.33077  0.31608  1.0000
  C   C46       1.0  0.68733  0.80962  0.24666  1.0000
  C   C47       1.0  0.68267  0.77779  0.20368  1.0000
  N   N10       1.0  0.70821  0.75638  0.20221  1.0000
  C   C48       1.0  0.74096  0.76584  0.24053  1.0000
  C   C49       1.0  0.74840  0.79705  0.28495  1.0000
  C   C50       1.0  0.72144  0.81914  0.28875  1.0000
  H   H24       1.0  0.65644  0.76994  0.16978  1.0000
  H   H25       1.0  0.77506  0.80365  0.31749  1.0000
  H   H26       1.0  0.72664  0.84349  0.32120  1.0000
  C   C51       1.0  0.82110  0.69651  0.19640  1.0000
  C   C52       1.0  0.82787  0.72667  0.13554  1.0000
  C   C53       1.0  0.80217  0.74969  0.15283  1.0000
  C   C54       1.0  0.76937  0.74207  0.22628  1.0000
  N   N11       1.0  0.76203  0.71292  0.28044  1.0000
  C   C55       1.0  0.78720  0.69118  0.26655  1.0000
  H   H27       1.0  0.85319  0.73123  0.07470  1.0000
  H   H28       1.0  0.80682  0.77303  0.10413  1.0000
  H   H29       1.0  0.77990  0.66789  0.30983  1.0000
  C   C56       1.0  0.31212  0.18829  0.24746  1.0000
  C   C57       1.0  0.31759  0.21920  0.19197  1.0000
  N   N12       1.0  0.29258  0.24104  0.18672  1.0000
  C   C58       1.0  0.25944  0.23268  0.23142  1.0000
  C   C59       1.0  0.25099  0.20221  0.28387  1.0000
  C   C60       1.0  0.27753  0.17989  0.29431  1.0000
  H   H30       1.0  0.34412  0.22586  0.15115  1.0000
  H   H31       1.0  0.22386  0.19640  0.31766  1.0000
  H   H32       1.0  0.27160  0.15626  0.33591  1.0000
  C   C61       1.0  0.18249  0.69652  0.17808  1.0000
  C   C62       1.0  0.17554  0.72680  0.12072  1.0000
  C   C63       1.0  0.20051  0.75023  0.14110  1.0000
  C   C64       1.0  0.23267  0.74295  0.21439  1.0000
  N   N13       1.0  0.24038  0.71361  0.26282  1.0000
  C   C65       1.0  0.21598  0.69142  0.24528  1.0000
  H   H33       1.0  0.15068  0.73115  0.06088  1.0000
  H   H34       1.0  0.19579  0.77375  0.09603  1.0000
  H   H35       1.0  0.22341  0.66795  0.28376  1.0000
  C   C66       1.0  0.69037  0.18896  0.24718  1.0000
  C   C67       1.0  0.68559  0.21989  0.19177  1.0000
  N   N14       1.0  0.71100  0.24130  0.18176  1.0000
  C   C68       1.0  0.74379  0.23279  0.22410  1.0000
  C   C69       1.0  0.75133  0.20252  0.28095  1.0000
  C   C70       1.0  0.72453  0.18038  0.29257  1.0000
  H   H36       1.0  0.65931  0.22693  0.15480  1.0000
  H   H37       1.0  0.77797  0.19659  0.31608  1.0000
  H   H38       1.0  0.72990  0.15669  0.33370  1.0000
  C   C71       1.0  0.82355  0.30178  0.16897  1.0000
  C   C72       1.0  0.83242  0.27025  0.13891  1.0000
  C   C73       1.0  0.80661  0.24747  0.15770  1.0000
  C   C74       1.0  0.77198  0.25646  0.20296  1.0000
  N   N15       1.0  0.76283  0.28681  0.22464  1.0000
  C   C75       1.0  0.78785  0.30850  0.20811  1.0000
  H   H39       1.0  0.85941  0.26445  0.10193  1.0000
  H   H40       1.0  0.81292  0.22293  0.13405  1.0000
  H   H41       1.0  0.77932  0.33284  0.22226  1.0000
  C   C76       1.0  0.31275  0.81189  0.25939  1.0000
  C   C77       1.0  0.31875  0.78034  0.21241  1.0000
  N   N16       1.0  0.29375  0.75859  0.20287  1.0000
  C   C78       1.0  0.26010  0.76729  0.23658  1.0000
  C   C79       1.0  0.25130  0.79816  0.28402  1.0000
  C   C80       1.0  0.27770  0.82067  0.29591  1.0000
  H   H42       1.0  0.34574  0.77317  0.18193  1.0000
  H   H43       1.0  0.22395  0.80429  0.31163  1.0000
  H   H44       1.0  0.27123  0.84480  0.32904  1.0000
  C   C81       1.0  0.96526  0.46638  0.67261  1.0000
  C   C82       1.0  0.46550  0.96618  0.79742  1.0000
  C   C83       1.0  0.03150  0.53288  0.67282  1.0000
  C   C84       1.0  0.53103  0.03328  0.80003  1.0000
  C   C85       1.0  0.96587  0.53341  0.67012  1.0000
  C   C86       1.0  0.46537  0.03334  0.80406  1.0000
  C   C87       1.0  0.03089  0.46587  0.68175  1.0000
  C   C88       1.0  0.53097  0.96646  0.79151  1.0000
  C   C89       1.0  0.93412  0.51607  0.64798  1.0000
  C   C90       1.0  0.43392  0.01573  0.77882  1.0000
  C   C91       1.0  0.06289  0.48303  0.65871  1.0000
  C   C92       1.0  0.56255  0.98391  0.76225  1.0000
  C   C93       1.0  0.93384  0.48403  0.64807  1.0000
  C   C94       1.0  0.43393  0.98371  0.77613  1.0000
  C   C95       1.0  0.06316  0.51501  0.65352  1.0000
  C   C96       1.0  0.56262  0.01588  0.76709  1.0000
  C   C97       1.0  0.96643  0.56665  0.68396  1.0000
  C   C98       1.0  0.46562  0.06651  0.82350  1.0000
  C   C99       1.0  0.03028  0.43281  0.70255  1.0000
  C   C100      1.0  0.53084  0.93338  0.80699  1.0000
  C   C101      1.0  0.96532  0.43327  0.68920  1.0000
  C   C102      1.0  0.46595  0.93298  0.80979  1.0000
  C   C103      1.0  0.03148  0.56612  0.68635  1.0000
  C   C104      1.0  0.53072  0.06634  0.82248  1.0000
  C   C105      1.0  0.84939  0.65241  0.76197  1.0000
  C   C106      1.0  0.34410  0.14807  0.84675  1.0000
  C   C107      1.0  0.14818  0.34877  0.78226  1.0000
  C   C108      1.0  0.65432  0.85553  0.83779  1.0000
  C   C109      1.0  0.84669  0.34918  0.73573  1.0000
  C   C110      1.0  0.34606  0.85008  0.84832  1.0000
  C   C111      1.0  0.15060  0.64875  0.75407  1.0000
  C   C112      1.0  0.65364  0.14586  0.84689  1.0000
  H   H45       1.0  0.90977  0.52886  0.63040  1.0000
  H   H46       1.0  0.40948  0.02829  0.76040  1.0000
  H   H47       1.0  0.08744  0.47011  0.64350  1.0000
  H   H48       1.0  0.58687  0.97132  0.73430  1.0000
  H   H49       1.0  0.90922  0.47162  0.62970  1.0000
  H   H50       1.0  0.40950  0.97115  0.75587  1.0000
  H   H51       1.0  0.08792  0.52731  0.63293  1.0000
  H   H52       1.0  0.58704  0.02852  0.74372  1.0000
  H   H53       1.0  0.83168  0.64924  0.87032  1.0000
  H   H54       1.0  0.32457  0.14440  0.94748  1.0000
  H   H55       1.0  0.16598  0.35319  0.88530  1.0000
  H   H56       1.0  0.67352  0.86163  0.93270  1.0000
  H   H57       1.0  0.82768  0.35324  0.83863  1.0000
  H   H58       1.0  0.32699  0.85405  0.95106  1.0000
  H   H59       1.0  0.16780  0.64476  0.85931  1.0000
  H   H60       1.0  0.67349  0.14014  0.93886  1.0000
  N   N17       1.0  0.84683  0.67589  0.66292  1.0000
  N   N18       1.0  0.34143  0.17022  0.73985  1.0000
  N   N19       1.0  0.15144  0.32473  0.68419  1.0000
  N   N20       1.0  0.65766  0.83145  0.74027  1.0000
  N   N21       1.0  0.84506  0.32487  0.63942  1.0000
  N   N22       1.0  0.34302  0.82717  0.74395  1.0000
  N   N23       1.0  0.15433  0.67250  0.65705  1.0000
  N   N24       1.0  0.65618  0.16960  0.74890  1.0000
  C   C113      1.0  0.99905  0.58173  0.69279  1.0000
  C   C114      1.0  0.99748  0.41780  0.70645  1.0000
  C   C115      1.0  0.49816  0.08167  0.83600  1.0000
  C   C116      1.0  0.49850  0.91780  0.81800  1.0000
  C   C117      1.0  0.99822  0.48283  0.67548  1.0000
  C   C118      1.0  0.99852  0.51642  0.67248  1.0000
  C   C119      1.0  0.49817  0.98308  0.79727  1.0000
  C   C120      1.0  0.49818  0.01663  0.80114  1.0000
  H   H61       1.0  0.99916  0.60697  0.71190  1.0000
  H   H62       1.0  0.99681  0.39278  0.72987  1.0000
  H   H63       1.0  0.49824  0.10675  0.86052  1.0000
  H   H64       1.0  0.49863  0.89265  0.83785  1.0000
  C   C121      1.0  0.17901  0.30335  0.69598  1.0000
  C   C122      1.0  0.17228  0.27197  0.65273  1.0000
  C   C123      1.0  0.19917  0.25013  0.66195  1.0000
  C   C124      1.0  0.23286  0.25987  0.71014  1.0000
  N   N25       1.0  0.24030  0.29021  0.74105  1.0000
  C   C125      1.0  0.21413  0.31107  0.73414  1.0000
  H   H65       1.0  0.14610  0.26550  0.61261  1.0000
  H   H66       1.0  0.19473  0.22576  0.62801  1.0000
  H   H67       1.0  0.22126  0.33556  0.75502  1.0000
  C   C126      1.0  0.68652  0.81122  0.74749  1.0000
  C   C127      1.0  0.68262  0.78150  0.67202  1.0000
  N   N26       1.0  0.70744  0.75936  0.66538  1.0000
  C   C128      1.0  0.73875  0.76616  0.73234  1.0000
  C   C129      1.0  0.74531  0.79504  0.81116  1.0000
  C   C130      1.0  0.71906  0.81770  0.81984  1.0000
  H   H68       1.0  0.65759  0.77605  0.61478  1.0000
  H   H69       1.0  0.77076  0.79924  0.86634  1.0000
  H   H70       1.0  0.72385  0.84005  0.88110  1.0000
  C   C131      1.0  0.81998  0.69804  0.68328  1.0000
  C   C132      1.0  0.82731  0.72916  0.63933  1.0000
  C   C133      1.0  0.80101  0.75156  0.65871  1.0000
  C   C134      1.0  0.76717  0.74241  0.71407  1.0000
  N   N27       1.0  0.75922  0.71232  0.74758  1.0000
  C   C135      1.0  0.78499  0.69109  0.73380  1.0000
  H   H71       1.0  0.85338  0.73494  0.58983  1.0000
  H   H72       1.0  0.80604  0.77584  0.62615  1.0000
  H   H73       1.0  0.77761  0.66684  0.75869  1.0000
  C   C136      1.0  0.31266  0.19069  0.74347  1.0000
  C   C137      1.0  0.31811  0.22047  0.67297  1.0000
  N   N28       1.0  0.29364  0.24283  0.66635  1.0000
  C   C138      1.0  0.26105  0.23612  0.72625  1.0000
  C   C139      1.0  0.25275  0.20692  0.79655  1.0000
  C   C140      1.0  0.27863  0.18407  0.80631  1.0000
  H   H74       1.0  0.34415  0.22589  0.62062  1.0000
  H   H75       1.0  0.22616  0.20257  0.84436  1.0000
  H   H76       1.0  0.27258  0.16138  0.86028  1.0000
  C   C141      1.0  0.18133  0.69429  0.67788  1.0000
  C   C142      1.0  0.17508  0.72509  0.62660  1.0000
  C   C143      1.0  0.20117  0.74752  0.64535  1.0000
  C   C144      1.0  0.23353  0.73876  0.71228  1.0000
  N   N29       1.0  0.24060  0.70891  0.75343  1.0000
  C   C145      1.0  0.21522  0.68755  0.73650  1.0000
  H   H77       1.0  0.14987  0.73045  0.57231  1.0000
  H   H78       1.0  0.19721  0.77140  0.60375  1.0000
  H   H79       1.0  0.22223  0.66350  0.76667  1.0000
  C   C146      1.0  0.68518  0.18983  0.74822  1.0000
  C   C147      1.0  0.68112  0.21829  0.66344  1.0000
  N   N30       1.0  0.70592  0.24032  0.64807  1.0000
  C   C148      1.0  0.73744  0.23469  0.71530  1.0000
  C   C149      1.0  0.74428  0.20698  0.80196  1.0000
  C   C150      1.0  0.71805  0.18450  0.81976  1.0000
  H   H80       1.0  0.65592  0.22274  0.60578  1.0000
  H   H81       1.0  0.76977  0.20376  0.85812  1.0000
  H   H82       1.0  0.72303  0.16327  0.88884  1.0000
  C   C151      1.0  0.81810  0.30292  0.65873  1.0000
  C   C152      1.0  0.82644  0.27121  0.63134  1.0000
  C   C153      1.0  0.80014  0.24887  0.64996  1.0000
  C   C154      1.0  0.76560  0.25847  0.69186  1.0000
  N   N31       1.0  0.75691  0.28896  0.71005  1.0000
  C   C155      1.0  0.78244  0.31031  0.69449  1.0000
  H   H83       1.0  0.85342  0.26493  0.59698  1.0000
  H   H84       1.0  0.80581  0.22420  0.62787  1.0000
  H   H85       1.0  0.77437  0.33480  0.70659  1.0000
  C   C156      1.0  0.31412  0.80698  0.75129  1.0000
  C   C157      1.0  0.31974  0.77591  0.69548  1.0000
  N   N32       1.0  0.29474  0.75408  0.68842  1.0000
  C   C158      1.0  0.26159  0.76245  0.73405  1.0000
  C   C159      1.0  0.25327  0.79272  0.79307  1.0000
  C   C160      1.0  0.27965  0.81522  0.80221  1.0000
  H   H86       1.0  0.34635  0.76906  0.65616  1.0000
  H   H87       1.0  0.22636  0.79826  0.83266  1.0000
  H   H88       1.0  0.27362  0.83890  0.84537  1.0000
  C  Sn1       1.0  0.91160  0.62953  0.09211  1.0000
  C   C161      1.0  0.88080  0.62502  0.18724  1.0000
  C  Sn2       1.0  0.87910  0.60147  0.30591  1.0000
  C  Sn3       1.0  0.90880  0.58204  0.33008  1.0000
  C   C162      1.0  0.93957  0.58656  0.23501  1.0000
  C  Sn4       1.0  0.94130  0.61010  0.11628  1.0000
  O  Te1       1.0  0.90748  0.65509  0.97419  1.0000
  O  Te2       1.0  0.84802  0.59740  0.39948  1.0000
  O  Te3       1.0  0.90766  0.55834  0.44812  1.0000
  O  Te4       1.0  0.97236  0.61417  0.02277  1.0000
  Mg  Mg1       1.0  0.85941  0.56197  0.54501  1.0000
  Mg  Mg2       1.0  0.95577  0.65147  0.87727  1.0000
  C  Sn5       1.0  0.43365  0.12506  0.26834  1.0000
  C   C163      1.0  0.43869  0.09617  0.34407  1.0000
  C  Sn6       1.0  0.40999  0.07966  0.41065  1.0000
  C  Sn7       1.0  0.37553  0.09227  0.40125  1.0000
  C   C164      1.0  0.37050  0.12114  0.32553  1.0000
  C  Sn8       1.0  0.39919  0.13767  0.25894  1.0000
  O  Te5       1.0  0.46272  0.14116  0.20262  1.0000
  O  Te6       1.0  0.41569  0.05083  0.48581  1.0000
  O  Te7       1.0  0.34645  0.07614  0.46706  1.0000
  O  Te8       1.0  0.39350  0.16648  0.18379  1.0000
  Mg  Mg3       1.0  0.36766  0.03775  0.55707  1.0000
  Mg  Mg4       1.0  0.44150  0.17957  0.11242  1.0000
  C  Sn9       1.0  0.06434  0.37329  0.17908  1.0000
  C   C165      1.0  0.05990  0.40341  0.24553  1.0000
  C  Sn10      1.0  0.08834  0.41929  0.31385  1.0000
  C  Sn11      1.0  0.12193  0.40476  0.31570  1.0000
  C   C166      1.0  0.12637  0.37466  0.24926  1.0000
  C  Sn12      1.0  0.09793  0.35876  0.18093  1.0000
  O  Te9       1.0  0.03554  0.35786  0.11141  1.0000
  O  Te10      1.0  0.08325  0.44938  0.37960  1.0000
  O  Te11      1.0  0.15074  0.42022  0.38345  1.0000
  O  Te12      1.0  0.10301  0.32869  0.11519  1.0000
  Mg  Mg5       1.0  0.13059  0.46088  0.45789  1.0000
  Mg  Mg6       1.0  0.05569  0.31718  0.03680  1.0000
  C  Sn13      1.0  0.61452  0.90417  0.45870  1.0000
  C   C167      1.0  0.61996  0.87561  0.37606  1.0000
  C  Sn14      1.0  0.59876  0.86698  0.24431  1.0000
  C  Sn15      1.0  0.57158  0.88732  0.19404  1.0000
  C   C168      1.0  0.56616  0.91586  0.27664  1.0000
  C  Sn16      1.0  0.58734  0.92451  0.40843  1.0000
  O  Te13      1.0  0.63603  0.91232  0.59008  1.0000
  O  Te14      1.0  0.60469  0.83830  0.16363  1.0000
  O  Te15      1.0  0.55007  0.87914  0.06255  1.0000
  O  Te16      1.0  0.58143  0.95317  0.48907  1.0000
  Mg  Mg7       1.0  0.56323  0.83950  0.99155  1.0000
  Mg  Mg8       1.0  0.61766  0.95387  0.66110  1.0000
  C  Sn17      1.0  0.92005  0.36356  0.14789  1.0000
  C   C169      1.0  0.88845  0.36757  0.23803  1.0000
  C  Sn18      1.0  0.87836  0.39724  0.29610  1.0000
  C  Sn19      1.0  0.90030  0.42346  0.26329  1.0000
  C   C170      1.0  0.93188  0.41945  0.17318  1.0000
  C  Sn20      1.0  0.94199  0.38978  0.11509  1.0000
  O  Te17      1.0  0.92962  0.33369  0.09104  1.0000
  O  Te18      1.0  0.84666  0.40066  0.38599  1.0000
  O  Te19      1.0  0.89071  0.45335  0.32023  1.0000
  O  Te20      1.0  0.97368  0.38636  0.02522  1.0000
  Mg  Mg9       1.0  0.84504  0.44609  0.43710  1.0000
  Mg  Mg10      1.0  0.97007  0.34281  0.97398  1.0000
  C  Sn21      1.0  0.41729  0.86484  0.27846  1.0000
  C   C171      1.0  0.38558  0.87052  0.36509  1.0000
  C  Sn22      1.0  0.37713  0.90071  0.42121  1.0000
  C  Sn23      1.0  0.40086  0.92575  0.39000  1.0000
  C   C172      1.0  0.43255  0.92006  0.30340  1.0000
  C  Sn24      1.0  0.44102  0.88988  0.24725  1.0000
  O  Te21      1.0  0.42520  0.83448  0.22351  1.0000
  O  Te22      1.0  0.34527  0.90581  0.50760  1.0000
  O  Te23      1.0  0.39293  0.95613  0.44505  1.0000
  O  Te24      1.0  0.47285  0.88478  0.16089  1.0000
  Mg  Mg11      1.0  0.34633  0.95130  0.55722  1.0000
  Mg  Mg12      1.0  0.47182  0.83930  0.11114  1.0000
  C  Sn25      1.0  0.07713  0.61666  0.08356  1.0000
  C   C173      1.0  0.07201  0.58764  0.15891  1.0000
  C  Sn26      1.0  0.09264  0.57886  0.29149  1.0000
  C  Sn27      1.0  0.11892  0.59952  0.35006  1.0000
  C   C174      1.0  0.12402  0.62852  0.27475  1.0000
  C  Sn28      1.0  0.10340  0.63732  0.14213  1.0000
  O  Te25      1.0  0.05096  0.62682  0.95119  1.0000
  O  Te26      1.0  0.08705  0.54972  0.36479  1.0000
  O  Te27      1.0  0.13985  0.59120  0.48253  1.0000
  O  Te28      1.0  0.10898  0.66644  0.06887  1.0000
  Mg  Mg13      1.0  0.12223  0.54903  0.54154  1.0000
  Mg  Mg14      1.0  0.06857  0.66903  0.89217  1.0000
  C  Sn29      1.0  0.57650  0.11709  0.19802  1.0000
  C   C175      1.0  0.57033  0.08878  0.27902  1.0000
  C  Sn30      1.0  0.59126  0.07993  0.41042  1.0000
  C  Sn31      1.0  0.61893  0.09982  0.46201  1.0000
  C   C176      1.0  0.62509  0.12811  0.38105  1.0000
  C  Sn32      1.0  0.60417  0.13697  0.24961  1.0000
  O  Te29      1.0  0.55524  0.12546  0.06697  1.0000
  O  Te30      1.0  0.58459  0.05151  0.48944  1.0000
  O  Te31      1.0  0.64019  0.09142  0.59317  1.0000
  O  Te32      1.0  0.61082  0.16538  0.17063  1.0000
  Mg  Mg15      1.0  0.62075  0.05040  0.66172  1.0000
  Mg  Mg16      1.0  0.56944  0.16838  0.99841  1.0000
  C  Sn33      1.0  0.89315  0.57833  0.77198  1.0000
  C   C177      1.0  0.92409  0.58196  0.67670  1.0000
  C  Sn34      1.0  0.93391  0.61144  0.61802  1.0000
  C  Sn35      1.0  0.91238  0.63785  0.65544  1.0000
  C   C178      1.0  0.88147  0.63421  0.75068  1.0000
  C  Sn36      1.0  0.87162  0.60474  0.80939  1.0000
  O  Te33      1.0  0.88385  0.54864  0.82935  1.0000
  O  Te34      1.0  0.96494  0.61449  0.52296  1.0000
  O  Te35      1.0  0.92171  0.66756  0.59797  1.0000
  O  Te36      1.0  0.84061  0.60168  0.90443  1.0000
  Mg  Mg17      1.0  0.96644  0.65979  0.47321  1.0000
  Mg  Mg18      1.0  0.83910  0.55640  0.95431  1.0000
  C  Sn37      1.0  0.40929  0.12858  0.70629  1.0000
  C   C179      1.0  0.37718  0.12454  0.79176  1.0000
  C  Sn38      1.0  0.37371  0.10180  0.91413  1.0000
  C  Sn39      1.0  0.40295  0.08270  0.95195  1.0000
  C   C180      1.0  0.43504  0.08675  0.86653  1.0000
  C  Sn40      1.0  0.43853  0.10948  0.74411  1.0000
  O  Te37      1.0  0.41216  0.15146  0.58444  1.0000
  O  Te38      1.0  0.34134  0.09819  0.99785  1.0000
  O  Te39      1.0  0.40529  0.05794  0.07391  1.0000
  O  Te40      1.0  0.47088  0.11310  0.66043  1.0000
  Mg  Mg19      1.0  0.35576  0.06196  0.15371  1.0000
  Mg  Mg20      1.0  0.46174  0.14746  0.50462  1.0000
  C  Sn41      1.0  0.10937  0.40298  0.87885  1.0000
  C   C181      1.0  0.11421  0.37314  0.80935  1.0000
  C  Sn42      1.0  0.09388  0.36326  0.67690  1.0000
  C  Sn43      1.0  0.06819  0.38363  0.61249  1.0000
  C   C182      1.0  0.06337  0.41344  0.68196  1.0000
  C  Sn44      1.0  0.08369  0.42335  0.81444  1.0000
  O  Te41      1.0  0.13523  0.41050  0.01120  1.0000
  O  Te42      1.0  0.09918  0.33332  0.60951  1.0000
  O  Te43      1.0  0.04757  0.37421  0.48004  1.0000
  O  Te44      1.0  0.07840  0.45327  0.88180  1.0000
  Mg  Mg21      1.0  0.06460  0.33124  0.43029  1.0000
  Mg  Mg22      1.0  0.11821  0.45350  0.06096  1.0000
  C  Sn45      1.0  0.56553  0.87542  0.76724  1.0000
  C   C183      1.0  0.56018  0.90506  0.83830  1.0000
  C  Sn46      1.0  0.58860  0.92221  0.89797  1.0000
  C  Sn47      1.0  0.62310  0.90948  0.88628  1.0000
  C   C184      1.0  0.62844  0.87986  0.81523  1.0000
  C  Sn48      1.0  0.60002  0.86268  0.75555  1.0000
  O  Te45      1.0  0.53672  0.85868  0.70839  1.0000
  O  Te46      1.0  0.58260  0.95179  0.96855  1.0000
  O  Te47      1.0  0.65191  0.92624  0.94521  1.0000
  O  Te48      1.0  0.60602  0.83312  0.68497  1.0000
  Mg  Mg23      1.0  0.63557  0.96368  0.03096  1.0000
  Mg  Mg24      1.0  0.55831  0.81935  0.62245  1.0000
  C  Sn49      1.0  0.87519  0.41044  0.77042  1.0000
  C   C185      1.0  0.87155  0.38109  0.69463  1.0000
  C  Sn50      1.0  0.90088  0.36582  0.62401  1.0000
  C  Sn51      1.0  0.93455  0.38017  0.62934  1.0000
  C   C186      1.0  0.93817  0.40949  0.70512  1.0000
  C  Sn52      1.0  0.90885  0.42478  0.77575  1.0000
  O  Te49      1.0  0.84551  0.42527  0.84022  1.0000
  O  Te50      1.0  0.89659  0.33650  0.54888  1.0000
  O  Te51      1.0  0.96424  0.36530  0.55945  1.0000
  O  Te52      1.0  0.91313  0.45408  0.85087  1.0000
  Mg  Mg25      1.0  0.94497  0.32561  0.47120  1.0000
  Mg  Mg26      1.0  0.86477  0.46499  0.92865  1.0000
  C  Sn53      1.0  0.42501  0.88300  0.68480  1.0000
  C   C187      1.0  0.42951  0.91151  0.76806  1.0000
  C  Sn54      1.0  0.40777  0.91946  0.90397  1.0000
  C  Sn55      1.0  0.38099  0.89848  0.95788  1.0000
  C   C188      1.0  0.37650  0.86999  0.87466  1.0000
  C  Sn56      1.0  0.39822  0.86202  0.73871  1.0000
  O  Te53      1.0  0.44705  0.87553  0.54923  1.0000
  O  Te54      1.0  0.41277  0.94810  0.98519  1.0000
  O  Te55      1.0  0.36418  0.90411  0.09357  1.0000
  O  Te56      1.0  0.39324  0.83340  0.65754  1.0000
  Mg  Mg27      1.0  0.38133  0.94584  0.16363  1.0000
  Mg  Mg28      1.0  0.42991  0.83375  0.47915  1.0000
  C  Sn57      1.0  0.07454  0.61625  0.57455  1.0000
  C   C189      1.0  0.06884  0.58740  0.65087  1.0000
  C  Sn58      1.0  0.08858  0.57884  0.78684  1.0000
  C  Sn59      1.0  0.11454  0.59956  0.84788  1.0000
  C   C190      1.0  0.12023  0.62839  0.77159  1.0000
  C  Sn60      1.0  0.10050  0.63697  0.63559  1.0000
  O  Te57      1.0  0.05450  0.62433  0.43879  1.0000
  O  Te58      1.0  0.08242  0.54987  0.86104  1.0000
  O  Te59      1.0  0.13459  0.59145  0.98375  1.0000
  O  Te60      1.0  0.10665  0.66592  0.56142  1.0000
  Mg  Mg29      1.0  0.12169  0.54759  0.04274  1.0000
  Mg  Mg30      1.0  0.07262  0.66637  0.37978  1.0000
  C  Sn61      1.0  0.62156  0.08620  0.88228  1.0000
  C   C191      1.0  0.62602  0.11595  0.81439  1.0000
  C  Sn62      1.0  0.59690  0.13304  0.76354  1.0000
  C  Sn63      1.0  0.56259  0.12012  0.78100  1.0000
  C   C192      1.0  0.55814  0.09039  0.84888  1.0000
  C  Sn64      1.0  0.58725  0.07328  0.89974  1.0000
  O  Te61      1.0  0.65105  0.06953  0.93229  1.0000
  O  Te62      1.0  0.60203  0.16273  0.69596  1.0000
  O  Te63      1.0  0.53309  0.13681  0.73092  1.0000
  O  Te64      1.0  0.58213  0.04361  0.96731  1.0000
  Mg  Mg31      1.0  0.55359  0.17633  0.64616  1.0000
  Mg  Mg32      1.0  0.63578  0.02813  0.01723  1.0000
