data_image0
_chemical_formula_structural       ONC3H2ONC9H6ONC3H2ONC9H6ONC3H2ONC3H2N6ONC9H6ONC3H2ONC9H6ONC3H2ONC9H6ONC9H6N6C2Sn2C2HTe2HMgC2Sn2C2HTe2HMgC2Sn2C2HTe2HMgC2Sn2C2HTe2HMgC2Sn2C2HTe2HMgC2Sn2C2HTe2HMg
_chemical_formula_sum              "O12 N24 C96 H60 Sn12 Te12 Mg6"
_cell_length_a       33.4249
_cell_length_b       33.3429
_cell_length_c       8.02881
_cell_angle_alpha    64.861
_cell_angle_beta     121.903
_cell_angle_gamma    119.827

_symmetry_space_group_name_H-M    'P1'
_space_group_IT_number       1

loop_
  _space_group_symop_operation_xyz
  'x, y, z'

loop_
  _atom_site_type_symbol
  _atom_site_label
  _atom_site_symmetry_multiplicity
  _atom_site_fract_x
  _atom_site_fract_y
  _atom_site_fract_z
  _atom_site_occupancy
  O   O1        1.0  0.30530  0.57469  0.98982  1.0000
  N   N1        1.0  0.38940  0.59828  0.97093  1.0000
  C   C1        1.0  0.31769  0.61738  0.99039  1.0000
  C   C2        1.0  0.39943  0.64177  0.97851  1.0000
  C   C3        1.0  0.36581  0.65307  0.98707  1.0000
  H   H1        1.0  0.43507  0.66967  0.97801  1.0000
  H   H2        1.0  0.35410  0.57503  0.97483  1.0000
  O   O2        1.0  0.42457  0.73166  0.00155  1.0000
  N   N2        1.0  0.40362  0.79446  0.01723  1.0000
  C   C4        1.0  0.38145  0.70168  0.99694  1.0000
  C   C5        1.0  0.35914  0.76032  0.01163  1.0000
  C   C6        1.0  0.42045  0.84173  0.02142  1.0000
  C   C7        1.0  0.39100  0.86121  0.01723  1.0000
  C   C8        1.0  0.40972  0.90920  0.01299  1.0000
  C   C9        1.0  0.45782  0.93866  0.01270  1.0000
  C   C10       1.0  0.48739  0.91879  0.01907  1.0000
  C   C11       1.0  0.46897  0.87106  0.02365  1.0000
  C   C12       1.0  0.34650  0.71467  0.00130  1.0000
  H   H3        1.0  0.33164  0.76800  0.01584  1.0000
  H   H4        1.0  0.35378  0.83908  0.01752  1.0000
  H   H5        1.0  0.42614  0.78126  0.01546  1.0000
  H   H6        1.0  0.49127  0.85576  0.02451  1.0000
  H   H7        1.0  0.38763  0.92490  0.01085  1.0000
  H   H8        1.0  0.52420  0.94197  0.01631  1.0000
  O   O3        1.0  0.26737  0.69270  0.00317  1.0000
  N   N3        1.0  0.20471  0.60636  0.00797  1.0000
  C   C13       1.0  0.29724  0.68041  0.99949  1.0000
  C   C14       1.0  0.23847  0.59725  0.00092  1.0000
  C   C15       1.0  0.28402  0.63199  0.99638  1.0000
  H   H9        1.0  0.23044  0.56156  0.99867  1.0000
  H   H10       1.0  0.21795  0.64219  0.01035  1.0000
  O   O4        1.0  0.69895  0.42634  0.00446  1.0000
  N   N4        1.0  0.61568  0.40767  0.02123  1.0000
  C   C16       1.0  0.68445  0.38307  0.00549  1.0000
  C   C17       1.0  0.60382  0.36333  0.01673  1.0000
  C   C18       1.0  0.58558  0.42564  0.01920  1.0000
  C   C19       1.0  0.53908  0.39686  0.03516  1.0000
  C   C20       1.0  0.51049  0.41746  0.02590  1.0000
  C   C21       1.0  0.52753  0.46672  0.00324  1.0000
  C   C22       1.0  0.57440  0.49538  0.98877  1.0000
  C   C23       1.0  0.60301  0.47504  0.99726  1.0000
  C   C24       1.0  0.63575  0.34940  0.01022  1.0000
  H   H11       1.0  0.56761  0.33681  0.01738  1.0000
  H   H12       1.0  0.52546  0.35869  0.05501  1.0000
  H   H13       1.0  0.65107  0.42959  0.01666  1.0000
  H   H14       1.0  0.63888  0.49682  0.98318  1.0000
  H   H15       1.0  0.47448  0.39592  0.03868  1.0000
  H   H16       1.0  0.58705  0.53343  0.96941  1.0000
  O   O5        1.0  0.57382  0.27192  0.99631  1.0000
  N   N5        1.0  0.59103  0.20507  0.99023  1.0000
  C   C25       1.0  0.61755  0.30007  0.00231  1.0000
  C   C26       1.0  0.63605  0.23776  0.99478  1.0000
  C   C27       1.0  0.65078  0.28426  0.00091  1.0000
  H   H17       1.0  0.66245  0.22804  0.99309  1.0000
  H   H18       1.0  0.56944  0.21990  0.98855  1.0000
  O   O6        1.0  0.72852  0.30164  0.99828  1.0000
  N   N6        1.0  0.79399  0.38719  0.98326  1.0000
  C   C28       1.0  0.70044  0.31644  0.00061  1.0000
  C   C29       1.0  0.76196  0.39863  0.99160  1.0000
  C   C30       1.0  0.71609  0.36574  0.99989  1.0000
  H   H19       1.0  0.77177  0.43504  0.99130  1.0000
  H   H20       1.0  0.77940  0.35104  0.98368  1.0000
  N   N7        1.0  0.51318  0.52768  0.99002  1.0000
  N   N8        1.0  0.47279  0.98676  0.00514  1.0000
  N   N9        1.0  0.01173  0.48536  0.98571  1.0000
  N   N10       1.0  0.49533  0.48315  0.99684  1.0000
  N   N11       1.0  0.51760  0.01164  0.01301  1.0000
  N   N12       1.0  0.98616  0.50381  0.98695  1.0000
  O   O7        1.0  0.30300  0.57402  0.49036  1.0000
  N   N13       1.0  0.38673  0.59487  0.47295  1.0000
  C   C31       1.0  0.31669  0.61705  0.49040  1.0000
  C   C32       1.0  0.39798  0.63883  0.47979  1.0000
  C   C33       1.0  0.41698  0.57756  0.47233  1.0000
  C   C34       1.0  0.46424  0.60649  0.46332  1.0000
  C   C35       1.0  0.49282  0.58628  0.46984  1.0000
  C   C36       1.0  0.47510  0.53734  0.48351  1.0000
  C   C37       1.0  0.42743  0.50858  0.49058  1.0000
  C   C38       1.0  0.39877  0.52852  0.48404  1.0000
  C   C39       1.0  0.36528  0.65157  0.48742  1.0000
  H   H21       1.0  0.43404  0.66592  0.48003  1.0000
  H   H22       1.0  0.47858  0.64438  0.45215  1.0000
  H   H23       1.0  0.35131  0.57249  0.47694  1.0000
  H   H24       1.0  0.36210  0.50669  0.49103  1.0000
  H   H25       1.0  0.52945  0.60787  0.46268  1.0000
  H   H26       1.0  0.41417  0.47079  0.50211  1.0000
  O   O8        1.0  0.42627  0.72930  0.50596  1.0000
  N   N14       1.0  0.40764  0.79440  0.51621  1.0000
  C   C40       1.0  0.38255  0.70047  0.49825  1.0000
  C   C41       1.0  0.36292  0.76112  0.51215  1.0000
  C   C42       1.0  0.34866  0.71506  0.50159  1.0000
  H   H27       1.0  0.33643  0.76995  0.51779  1.0000
  H   H28       1.0  0.42938  0.78025  0.51460  1.0000
  O   O9        1.0  0.27039  0.69544  0.50571  1.0000
  N   N15       1.0  0.20523  0.61016  0.50690  1.0000
  C   C43       1.0  0.29909  0.68197  0.50031  1.0000
  C   C44       1.0  0.23800  0.59972  0.49887  1.0000
  C   C45       1.0  0.15751  0.58005  0.50509  1.0000
  C   C46       1.0  0.13641  0.53265  0.48959  1.0000
  C   C47       1.0  0.08796  0.50521  0.48143  1.0000
  C   C48       1.0  0.05953  0.52398  0.48853  1.0000
  C   C49       1.0  0.08098  0.57148  0.50539  1.0000
  C   C50       1.0  0.12930  0.59900  0.51361  1.0000
  C   C51       1.0  0.28414  0.63322  0.49593  1.0000
  H   H29       1.0  0.22866  0.56380  0.49466  1.0000
  H   H30       1.0  0.15704  0.51767  0.47829  1.0000
  H   H31       1.0  0.21979  0.64597  0.51209  1.0000
  H   H32       1.0  0.14626  0.63558  0.52814  1.0000
  H   H33       1.0  0.07057  0.46873  0.46564  1.0000
  H   H34       1.0  0.05909  0.58541  0.51461  1.0000
  O   O10       1.0  0.69665  0.42585  0.50630  1.0000
  N   N16       1.0  0.61286  0.40418  0.52357  1.0000
  C   C52       1.0  0.68346  0.38290  0.50648  1.0000
  C   C53       1.0  0.60223  0.36024  0.51900  1.0000
  C   C54       1.0  0.63526  0.34791  0.51163  1.0000
  H   H35       1.0  0.56648  0.33275  0.52043  1.0000
  H   H36       1.0  0.64809  0.42691  0.51802  1.0000
  O   O11       1.0  0.57569  0.26944  0.50254  1.0000
  N   N17       1.0  0.59547  0.20476  0.49557  1.0000
  C   C55       1.0  0.61882  0.29887  0.50500  1.0000
  C   C56       1.0  0.63976  0.23852  0.49632  1.0000
  C   C57       1.0  0.57817  0.15719  0.49383  1.0000
  C   C58       1.0  0.60636  0.13754  0.49051  1.0000
  C   C59       1.0  0.58708  0.08948  0.49500  1.0000
  C   C60       1.0  0.53973  0.06013  0.50303  1.0000
  C   C61       1.0  0.51146  0.08012  0.50481  1.0000
  C   C62       1.0  0.53045  0.12796  0.50014  1.0000
  C   C63       1.0  0.65303  0.28476  0.50160  1.0000
  H   H37       1.0  0.66673  0.23001  0.49252  1.0000
  H   H38       1.0  0.64289  0.15956  0.48332  1.0000
  H   H39       1.0  0.57338  0.21861  0.49654  1.0000
  H   H40       1.0  0.50923  0.14347  0.50518  1.0000
  H   H41       1.0  0.60807  0.07360  0.49090  1.0000
  H   H42       1.0  0.47519  0.05707  0.51335  1.0000
  O   O12       1.0  0.73125  0.30511  0.49555  1.0000
  N   N18       1.0  0.79426  0.39139  0.47980  1.0000
  C   C64       1.0  0.70215  0.31835  0.49950  1.0000
  C   C65       1.0  0.76146  0.40142  0.48945  1.0000
  C   C66       1.0  0.84127  0.42212  0.47532  1.0000
  C   C67       1.0  0.86147  0.46995  0.48388  1.0000
  C   C68       1.0  0.90946  0.49787  0.48722  1.0000
  C   C69       1.0  0.93811  0.47916  0.48129  1.0000
  C   C70       1.0  0.91737  0.43133  0.46978  1.0000
  C   C71       1.0  0.86963  0.40329  0.46712  1.0000
  C   C72       1.0  0.71617  0.36726  0.49923  1.0000
  H   H43       1.0  0.77007  0.43749  0.48917  1.0000
  H   H44       1.0  0.84059  0.48490  0.49375  1.0000
  H   H45       1.0  0.78058  0.35533  0.48021  1.0000
  H   H46       1.0  0.85320  0.36640  0.45702  1.0000
  H   H47       1.0  0.92631  0.53468  0.49818  1.0000
  H   H48       1.0  0.93937  0.41751  0.46066  1.0000
  N   N19       1.0  0.50744  0.52112  0.48957  1.0000
  N   N20       1.0  0.48058  0.98669  0.51131  1.0000
  N   N21       1.0  0.01145  0.49246  0.48291  1.0000
  N   N22       1.0  0.48960  0.47664  0.49596  1.0000
  N   N23       1.0  0.52440  0.01212  0.50875  1.0000
  N   N24       1.0  0.98593  0.51092  0.48431  1.0000
  C   C73       1.0  0.58163  0.49171  0.49404  1.0000
  C   C74       1.0  0.53312  0.46952  0.49049  1.0000
  C  Sn1       1.0  0.50944  0.42040  0.51309  1.0000
  C  Sn2       1.0  0.53490  0.39307  0.53977  1.0000
  C   C75       1.0  0.58343  0.41560  0.54325  1.0000
  C   C76       1.0  0.60677  0.46478  0.52043  1.0000
  H   H49       1.0  0.59970  0.52976  0.47649  1.0000
  O  Te1       1.0  0.46096  0.39880  0.50911  1.0000
  O  Te2       1.0  0.51212  0.34391  0.56279  1.0000
  H   H50       1.0  0.64434  0.48194  0.52331  1.0000
  Mg  Mg1       1.0  0.44567  0.33079  0.54682  1.0000
  C   C77       1.0  0.40431  0.52279  0.98048  1.0000
  C   C78       1.0  0.41617  0.56910  0.98322  1.0000
  C  Sn3       1.0  0.46164  0.60433  0.97606  1.0000
  C  Sn4       1.0  0.49578  0.59288  0.96592  1.0000
  C   C79       1.0  0.48355  0.54645  0.96310  1.0000
  C   C80       1.0  0.43796  0.51147  0.97039  1.0000
  H   H51       1.0  0.36902  0.49572  0.98601  1.0000
  O  Te3       1.0  0.47290  0.65042  0.97900  1.0000
  O  Te4       1.0  0.54148  0.62741  0.95853  1.0000
  H   H52       1.0  0.42877  0.47562  0.96814  1.0000
  Mg  Mg2       1.0  0.53986  0.68514  0.96627  1.0000
  C   C81       1.0  0.12787  0.51538  0.99815  1.0000
  C   C82       1.0  0.15301  0.56378  0.99578  1.0000
  C  Sn5       1.0  0.02981  0.64107  0.00153  1.0000
  C  Sn6       1.0  0.98178  0.61755  0.00985  1.0000
  C   C83       1.0  0.95695  0.56911  0.01230  1.0000
  C   C84       1.0  0.97927  0.54396  0.00644  1.0000
  H   H53       1.0  0.14514  0.49591  0.99373  1.0000
  O  Te5       1.0  0.15668  0.63760  0.99898  1.0000
  O  Te6       1.0  0.95897  0.64215  0.01579  1.0000
  H   H54       1.0  0.95980  0.50648  0.00841  1.0000
  Mg  Mg3       1.0  0.00882  0.70761  0.00928  1.0000
  C   C85       1.0  0.49560  0.90777  0.52291  1.0000
  C   C86       1.0  0.47263  0.93520  0.50840  1.0000
  C  Sn7       1.0  0.42486  0.91389  0.51133  1.0000
  C  Sn8       1.0  0.39972  0.86419  0.52920  1.0000
  C   C87       1.0  0.42304  0.83706  0.54377  1.0000
  C   C88       1.0  0.47084  0.85874  0.54062  1.0000
  H   H55       1.0  0.53260  0.92455  0.52059  1.0000
  O  Te7       1.0  0.40245  0.94182  0.49660  1.0000
  O  Te8       1.0  0.35196  0.84198  0.53259  1.0000
  H   H56       1.0  0.48863  0.83749  0.55199  1.0000
  Mg  Mg4       1.0  0.33696  0.89518  0.50804  1.0000
  C   C89       1.0  0.60408  0.12528  0.01006  1.0000
  C   C90       1.0  0.68197  0.10199  0.98383  1.0000
  C  Sn9       1.0  0.63312  0.08184  0.97539  1.0000
  C  Sn10      1.0  0.60727  0.03219  0.99364  1.0000
  C   C91       1.0  0.52974  0.05577  0.01997  1.0000
  C   C92       1.0  0.57862  0.07630  0.02815  1.0000
  H   H57       1.0  0.64191  0.14115  0.01649  1.0000
  O  Te9       1.0  0.61035  0.11086  0.94904  1.0000
  O  Te10      1.0  0.55844  0.01113  0.98580  1.0000
  H   H58       1.0  0.59669  0.05420  0.04859  1.0000
  Mg  Mg5       1.0  0.54332  0.06556  0.94777  1.0000
  C   C93       1.0  0.87959  0.39836  0.96351  1.0000
  C   C94       1.0  0.84832  0.41017  0.98625  1.0000
  C  Sn11      1.0  0.86248  0.45617  0.99962  1.0000
  C  Sn12      1.0  0.90883  0.49092  0.98994  1.0000
  C   C95       1.0  0.93983  0.47875  0.96704  1.0000
  C   C96       1.0  0.92529  0.43261  0.95388  1.0000
  H   H59       1.0  0.86834  0.36267  0.95322  1.0000
  O  Te11      1.0  0.72957  0.51918  0.02237  1.0000
  O  Te12      1.0  0.82266  0.58898  0.00284  1.0000
  H   H60       1.0  0.94950  0.42349  0.93615  1.0000
  Mg  Mg6       1.0  0.76660  0.58702  0.03311  1.0000
