data_image0
_chemical_formula_structural       ONC3H2ONC3H2ONC3H2C3ONC3H2ONC3H2ONC3H2C3H2ONC3H2ONC3H2ONC3H2C3ONC3H2ONC3H2ONC3H2C3H2SnCSn2CSnTe4Mg2SnCSn2CSnTe4Mg2SnCSn2CSnTe4Mg2SnCSn2CSnTe4Mg2SnCSn2CSnTe4Mg2SnCSn2CSnTe4Mg2SnCSn2CSnTe4Mg2SnCSn2CSnTe4Mg2SnCSn2CSnTe4Mg2SnCSn2CSnTe4Mg2SnCSn2CSnTe4Mg2SnCSn2CSnTe4Mg2
_chemical_formula_sum              "O12 N12 C72 H28 Sn48 Te48 Mg24"
_cell_length_a       34.0548
_cell_length_b       34.7973
_cell_length_c       7.95374
_cell_angle_alpha    60.6994
_cell_angle_beta     122.977
_cell_angle_gamma    120.775

_symmetry_space_group_name_H-M    'P1'
_space_group_IT_number       1

loop_
  _space_group_symop_operation_xyz
  'x, y, z'

loop_
  _atom_site_type_symbol
  _atom_site_label
  _atom_site_symmetry_multiplicity
  _atom_site_fract_x
  _atom_site_fract_y
  _atom_site_fract_z
  _atom_site_occupancy
  O   O1        1.0  0.30067  0.58858  0.96748  1.0000
  N   N1        1.0  0.38364  0.61154  0.94390  1.0000
  C   C1        1.0  0.31240  0.63070  0.95438  1.0000
  C   C2        1.0  0.39288  0.65432  0.93838  1.0000
  C   C3        1.0  0.35952  0.66548  0.94197  1.0000
  H   H1        1.0  0.42757  0.68189  0.92977  1.0000
  H   H2        1.0  0.34895  0.58896  0.95191  1.0000
  O   O2        1.0  0.41529  0.74350  0.91806  1.0000
  N   N2        1.0  0.39770  0.80407  0.94083  1.0000
  C   C4        1.0  0.37403  0.71366  0.93124  1.0000
  C   C5        1.0  0.35372  0.77118  0.94083  1.0000
  C   C6        1.0  0.34026  0.72666  0.93469  1.0000
  H   H3        1.0  0.32759  0.77891  0.94822  1.0000
  H   H4        1.0  0.41864  0.79106  0.93421  1.0000
  O   O3        1.0  0.26196  0.70651  0.93116  1.0000
  N   N3        1.0  0.20122  0.62199  0.96684  1.0000
  C   C7        1.0  0.29165  0.69352  0.93765  1.0000
  C   C8        1.0  0.23407  0.61179  0.96553  1.0000
  C   C9        1.0  0.27878  0.64554  0.95111  1.0000
  H   H5        1.0  0.22627  0.57616  0.97875  1.0000
  H   H6        1.0  0.21472  0.65762  0.95625  1.0000
  C   C10       1.0  0.50532  0.53752  0.98833  1.0000
  C   C11       1.0  0.47879  0.98821  0.97935  1.0000
  C   C12       1.0  0.01197  0.51098  0.99207  1.0000
  O   O4        1.0  0.69085  0.42688  0.03433  1.0000
  N   N4        1.0  0.60863  0.41125  0.04449  1.0000
  C   C13       1.0  0.67582  0.38415  0.04622  1.0000
  C   C14       1.0  0.59669  0.36726  0.05484  1.0000
  C   C15       1.0  0.62788  0.35214  0.05744  1.0000
  H   H7        1.0  0.56091  0.34178  0.05953  1.0000
  H   H8        1.0  0.64384  0.43176  0.03917  1.0000
  O   O5        1.0  0.56563  0.27680  0.05723  1.0000
  N   N5        1.0  0.57966  0.21073  0.04959  1.0000
  C   C16       1.0  0.60883  0.30373  0.05907  1.0000
  C   C17       1.0  0.62396  0.24248  0.04910  1.0000
  C   C18       1.0  0.64023  0.28738  0.05744  1.0000
  H   H9        1.0  0.64900  0.23330  0.04180  1.0000
  H   H10       1.0  0.55931  0.22454  0.05413  1.0000
  O   O6        1.0  0.71650  0.30172  0.05962  1.0000
  N   N6        1.0  0.78144  0.38391  0.02631  1.0000
  C   C19       1.0  0.68958  0.31754  0.05607  1.0000
  C   C20       1.0  0.75130  0.39709  0.03006  1.0000
  C   C21       1.0  0.70607  0.36599  0.04558  1.0000
  H   H11       1.0  0.76215  0.43325  0.02015  1.0000
  H   H12       1.0  0.76567  0.34811  0.03588  1.0000
  C   C22       1.0  0.49350  0.49301  0.99830  1.0000
  C   C23       1.0  0.49675  0.02756  0.99578  1.0000
  C   C24       1.0  0.97100  0.48818  0.00060  1.0000
  H   H13       1.0  0.54155  0.56277  0.98731  1.0000
  H   H14       1.0  0.45740  0.46791  0.00125  1.0000
  O   O7        1.0  0.31066  0.57288  0.46918  1.0000
  N   N7        1.0  0.39279  0.58954  0.45510  1.0000
  C   C25       1.0  0.32533  0.61558  0.45693  1.0000
  C   C26       1.0  0.40454  0.63333  0.44657  1.0000
  C   C27       1.0  0.37319  0.64796  0.44547  1.0000
  H   H15       1.0  0.44027  0.65905  0.44196  1.0000
  H   H16       1.0  0.35750  0.56883  0.45951  1.0000
  O   O8        1.0  0.43484  0.72365  0.44352  1.0000
  N   N8        1.0  0.41992  0.78923  0.45149  1.0000
  C   C28       1.0  0.39183  0.69638  0.44314  1.0000
  C   C29       1.0  0.37586  0.75708  0.45288  1.0000
  C   C30       1.0  0.36010  0.71224  0.44522  1.0000
  H   H17       1.0  0.35059  0.76599  0.45997  1.0000
  H   H18       1.0  0.44063  0.77590  0.44678  1.0000
  O   O9        1.0  0.28360  0.69724  0.44317  1.0000
  N   N9        1.0  0.21876  0.61493  0.47350  1.0000
  C   C31       1.0  0.31081  0.68173  0.44681  1.0000
  C   C32       1.0  0.24930  0.60206  0.47074  1.0000
  C   C33       1.0  0.29467  0.63337  0.45695  1.0000
  H   H19       1.0  0.23858  0.56601  0.47964  1.0000
  H   H20       1.0  0.23432  0.65068  0.46462  1.0000
  C   C34       1.0  0.50863  0.50916  0.49802  1.0000
  C   C35       1.0  0.50106  0.97221  0.50338  1.0000
  C   C36       1.0  0.02885  0.51025  0.49637  1.0000
  O   O10       1.0  0.69998  0.41136  0.53357  1.0000
  N   N10       1.0  0.61736  0.38867  0.55865  1.0000
  C   C37       1.0  0.68805  0.36918  0.54670  1.0000
  C   C38       1.0  0.60780  0.34583  0.56388  1.0000
  C   C39       1.0  0.64096  0.33444  0.56007  1.0000
  H   H21       1.0  0.57296  0.31854  0.57207  1.0000
  H   H22       1.0  0.65196  0.41124  0.54956  1.0000
  O   O11       1.0  0.58520  0.25639  0.58558  1.0000
  N   N11       1.0  0.60237  0.19562  0.56280  1.0000
  C   C40       1.0  0.62636  0.28620  0.57133  1.0000
  C   C41       1.0  0.64634  0.22841  0.56175  1.0000
  C   C42       1.0  0.65988  0.27307  0.56683  1.0000
  H   H23       1.0  0.67239  0.22049  0.55467  1.0000
  H   H24       1.0  0.58166  0.20886  0.56961  1.0000
  O   O12       1.0  0.73780  0.29312  0.56748  1.0000
  N   N12       1.0  0.79888  0.37741  0.53361  1.0000
  C   C43       1.0  0.70834  0.30619  0.56228  1.0000
  C   C44       1.0  0.76621  0.38784  0.53505  1.0000
  C   C45       1.0  0.72144  0.35419  0.54930  1.0000
  H   H25       1.0  0.77409  0.42346  0.52226  1.0000
  H   H26       1.0  0.78505  0.34170  0.54403  1.0000
  C   C46       1.0  0.49682  0.46453  0.50954  1.0000
  C   C47       1.0  0.51910  0.01155  0.51997  1.0000
  C   C48       1.0  0.98793  0.48760  0.50537  1.0000
  H   H27       1.0  0.54475  0.53427  0.49524  1.0000
  H   H28       1.0  0.46087  0.43925  0.51388  1.0000
  C  Sn1       1.0  0.40023  0.67179  0.02784  1.0000
  C   C49       1.0  0.38759  0.62641  0.03140  1.0000
  C  Sn2       1.0  0.43097  0.53199  0.97324  1.0000
  C  Sn3       1.0  0.39320  0.54856  0.91007  1.0000
  C   C50       1.0  0.40584  0.59391  0.90650  1.0000
  C  Sn4       1.0  0.45545  0.62307  0.96467  1.0000
  O  Te1       1.0  0.45007  0.70030  0.08663  1.0000
  O  Te2       1.0  0.41925  0.48675  0.97813  1.0000
  O  Te3       1.0  0.34334  0.52000  0.85127  1.0000
  O  Te4       1.0  0.46718  0.66827  0.95977  1.0000
  Mg  Mg1       1.0  0.34601  0.46114  0.88372  1.0000
  Mg  Mg2       1.0  0.44741  0.75922  0.05404  1.0000
  C  Sn5       1.0  0.38469  0.88229  0.89415  1.0000
  C   C51       1.0  0.40624  0.85750  0.89245  1.0000
  C  Sn6       1.0  0.45742  0.87384  0.94764  1.0000
  C  Sn7       1.0  0.39472  0.98110  0.00589  1.0000
  C   C52       1.0  0.85034  0.00586  0.00761  1.0000
  C  Sn8       1.0  0.41496  0.92426  0.95240  1.0000
  O  Te5       1.0  0.33344  0.86531  0.83840  1.0000
  O  Te6       1.0  0.47812  0.84846  0.94469  1.0000
  O  Te7       1.0  0.92318  0.99807  0.06165  1.0000
  O  Te8       1.0  0.87145  0.94960  0.95537  1.0000
  Mg  Mg3       1.0  0.45680  0.95111  0.03352  1.0000
  Mg  Mg4       1.0  0.32262  0.91228  0.86668  1.0000
  C  Sn9       1.0  0.03064  0.67045  0.04234  1.0000
  C   C53       1.0  0.06200  0.65733  0.03442  1.0000
  C  Sn10      1.0  0.13656  0.55156  0.98080  1.0000
  C  Sn11      1.0  0.08571  0.52363  0.93399  1.0000
  C   C54       1.0  0.05438  0.53675  0.94188  1.0000
  C  Sn12      1.0  0.07279  0.57722  0.99553  1.0000
  O  Te9       1.0  0.04987  0.71106  0.09631  1.0000
  O  Te10      1.0  0.16863  0.53915  0.97400  1.0000
  O  Te11      1.0  0.06650  0.48300  0.87999  1.0000
  O  Te12      1.0  0.94776  0.65494  0.00230  1.0000
  Mg  Mg5       1.0  0.12490  0.48070  0.89208  1.0000
  Mg  Mg6       1.0  0.99144  0.71338  0.08409  1.0000
  C  Sn13      1.0  0.61039  0.34336  0.97447  1.0000
  C   C55       1.0  0.65787  0.36356  0.97354  1.0000
  C  Sn14      1.0  0.59597  0.47243  0.00910  1.0000
  C  Sn15      1.0  0.57928  0.49631  0.04650  1.0000
  C   C56       1.0  0.53184  0.47611  0.04746  1.0000
  C  Sn16      1.0  0.50071  0.43254  0.01188  1.0000
  O  Te13      1.0  0.57994  0.29976  0.93857  1.0000
  O  Te14      1.0  0.64328  0.49193  0.00734  1.0000
  O  Te15      1.0  0.60978  0.53995  0.08242  1.0000
  O  Te16      1.0  0.45344  0.41304  0.01367  1.0000
  Mg  Mg7       1.0  0.67107  0.55208  0.06454  1.0000
  Mg  Mg8       1.0  0.51861  0.28758  0.95659  1.0000
  C  Sn17      1.0  0.51045  0.12300  0.09219  1.0000
  C   C57       1.0  0.55668  0.15586  0.09039  1.0000
  C  Sn18      1.0  0.58352  0.14917  0.02852  1.0000
  C  Sn19      1.0  0.65670  0.04349  0.96703  1.0000
  C   C58       1.0  0.61049  0.01066  0.96882  1.0000
  C  Sn20      1.0  0.49064  0.08262  0.03071  1.0000
  O  Te17      1.0  0.48427  0.13041  0.15461  1.0000
  O  Te18      1.0  0.62967  0.18250  0.02808  1.0000
  O  Te19      1.0  0.68293  0.03610  0.90459  1.0000
  O  Te20      1.0  0.44452  0.04932  0.03114  1.0000
  Mg  Mg9       1.0  0.74421  0.09150  0.93021  1.0000
  Mg  Mg10      1.0  0.42292  0.07500  0.12886  1.0000
  C  Sn21      1.0  0.86955  0.38859  0.07688  1.0000
  C   C59       1.0  0.83869  0.40438  0.07347  1.0000
  C  Sn22      1.0  0.84809  0.45226  0.01472  1.0000
  C  Sn23      1.0  0.98216  0.41973  0.95806  1.0000
  C   C60       1.0  0.01299  0.40393  0.96145  1.0000
  C  Sn24      1.0  0.91064  0.42136  0.02023  1.0000
  O  Te21      1.0  0.85946  0.34057  0.13612  1.0000
  O  Te22      1.0  0.81672  0.46721  0.01258  1.0000
  O  Te23      1.0  0.99223  0.46779  0.89880  1.0000
  O  Te24      1.0  0.94197  0.40641  0.02235  1.0000
  Mg  Mg11      1.0  0.93878  0.47093  0.92042  1.0000
  Mg  Mg12      1.0  0.91292  0.33740  0.11437  1.0000
  C  Sn25      1.0  0.41574  0.50794  0.42080  1.0000
  C   C61       1.0  0.46444  0.52768  0.43350  1.0000
  C  Sn26      1.0  0.49576  0.56984  0.48289  1.0000
  C  Sn27      1.0  0.47804  0.59275  0.52051  1.0000
  C   C62       1.0  0.42936  0.57301  0.50785  1.0000
  C  Sn28      1.0  0.39801  0.53085  0.45843  1.0000
  O  Te25      1.0  0.38508  0.46576  0.37120  1.0000
  O  Te26      1.0  0.54430  0.58890  0.49460  1.0000
  O  Te27      1.0  0.50874  0.63496  0.57014  1.0000
  O  Te28      1.0  0.34950  0.51179  0.44675  1.0000
  Mg  Mg13      1.0  0.57189  0.64701  0.56760  1.0000
  Mg  Mg14      1.0  0.32189  0.45367  0.37387  1.0000
  C  Sn29      1.0  0.50002  0.86780  0.53350  1.0000
  C   C63       1.0  0.45293  0.83544  0.52513  1.0000
  C  Sn30      1.0  0.41582  0.84996  0.47862  1.0000
  C  Sn31      1.0  0.42596  0.89783  0.43952  1.0000
  C   C64       1.0  0.47302  0.93016  0.44786  1.0000
  C  Sn32      1.0  0.51016  0.91567  0.49440  1.0000
  O  Te29      1.0  0.53656  0.85250  0.58028  1.0000
  O  Te30      1.0  0.36903  0.81696  0.47122  1.0000
  O  Te31      1.0  0.38937  0.91310  0.39271  1.0000
  O  Te32      1.0  0.55692  0.94864  0.50178  1.0000
  Mg  Mg15      1.0  0.33146  0.85491  0.40082  1.0000
  Mg  Mg16      1.0  0.59450  0.91073  0.57205  1.0000
  C  Sn33      1.0  0.10325  0.59533  0.42305  1.0000
  C   C65       1.0  0.07603  0.54808  0.43566  1.0000
  C  Sn34      1.0  0.09924  0.51759  0.49289  1.0000
  C  Sn35      1.0  0.15074  0.53467  0.53860  1.0000
  C   C66       1.0  0.17793  0.58190  0.52601  1.0000
  C  Sn36      1.0  0.15475  0.61242  0.46876  1.0000
  O  Te33      1.0  0.07928  0.62518  0.36554  1.0000
  O  Te34      1.0  0.07125  0.47049  0.50435  1.0000
  O  Te35      1.0  0.17469  0.50478  0.59614  1.0000
  O  Te36      1.0  0.18271  0.65948  0.45733  1.0000
  Mg  Mg17      1.0  0.12069  0.44356  0.58986  1.0000
  Mg  Mg18      1.0  0.13332  0.68644  0.37194  1.0000
  C  Sn37      1.0  0.52096  0.38771  0.61130  1.0000
  C   C67       1.0  0.53176  0.43451  0.58239  1.0000
  C  Sn38      1.0  0.57015  0.46961  0.51747  1.0000
  C  Sn39      1.0  0.59832  0.45769  0.48055  1.0000
  C   C68       1.0  0.58751  0.41091  0.50943  1.0000
  C  Sn40      1.0  0.54912  0.37578  0.57439  1.0000
  O  Te37      1.0  0.48241  0.35320  0.67627  1.0000
  O  Te38      1.0  0.58027  0.51616  0.48969  1.0000
  O  Te39      1.0  0.63689  0.49225  0.41555  1.0000
  O  Te40      1.0  0.53900  0.32927  0.60213  1.0000
  Mg  Mg19      1.0  0.63646  0.55063  0.39939  1.0000
  Mg  Mg20      1.0  0.48281  0.29477  0.69231  1.0000
  C  Sn41      1.0  0.53333  0.10814  0.60996  1.0000
  C   C69       1.0  0.57961  0.14067  0.60736  1.0000
  C  Sn42      1.0  0.60631  0.13314  0.54792  1.0000
  C  Sn43      1.0  0.58631  0.09226  0.48971  1.0000
  C   C70       1.0  0.54005  0.05977  0.49229  1.0000
  C  Sn44      1.0  0.51333  0.06726  0.55176  1.0000
  O  Te41      1.0  0.50729  0.11638  0.66992  1.0000
  O  Te42      1.0  0.65251  0.16616  0.54662  1.0000
  O  Te43      1.0  0.61239  0.08404  0.42974  1.0000
  O  Te44      1.0  0.46715  0.03428  0.55304  1.0000
  Mg  Mg21      1.0  0.67382  0.13929  0.45297  1.0000
  Mg  Mg22      1.0  0.44580  0.06112  0.64655  1.0000
  C  Sn45      1.0  0.86964  0.46589  0.45369  1.0000
  C   C71       1.0  0.84357  0.41862  0.46416  1.0000
  C  Sn46      1.0  0.86799  0.38947  0.51829  1.0000
  C  Sn47      1.0  0.91955  0.40795  0.56302  1.0000
  C   C72       1.0  0.94559  0.45520  0.55258  1.0000
  C  Sn48      1.0  0.92120  0.48437  0.49843  1.0000
  O  Te45      1.0  0.84447  0.49438  0.39926  1.0000
  O  Te46      1.0  0.84113  0.34233  0.52765  1.0000
  O  Te47      1.0  0.94471  0.37942  0.61748  1.0000
  O  Te48      1.0  0.94803  0.53148  0.48909  1.0000
  Mg  Mg23      1.0  0.89197  0.31755  0.60922  1.0000
  Mg  Mg24      1.0  0.89723  0.55629  0.40765  1.0000
