data_image0
_chemical_formula_structural       C7H4NCHC7H4NCHC8H3C6H4C7H4NCHC7H4NCHC8H3C6H4C7H4NCHC7H4NCHC8H3C6H4C7H4NCHC7H4NCHC8H3C6H4C2Sn2C2HTe2HMgC2Sn2C2HTe2HMgC2Sn2C2HTe2HMgC2Sn2C2HTe2HMg
_chemical_formula_sum              "C136 H76 N8 Sn8 Te8 Mg4"
_cell_length_a       27.5929
_cell_length_b       29.0578
_cell_length_c       8.12609
_cell_angle_alpha    92.9986
_cell_angle_beta     104.759
_cell_angle_gamma    80.4808

_symmetry_space_group_name_H-M    'P1'
_space_group_IT_number       1

loop_
  _space_group_symop_operation_xyz
  'x, y, z'

loop_
  _atom_site_type_symbol
  _atom_site_label
  _atom_site_symmetry_multiplicity
  _atom_site_fract_x
  _atom_site_fract_y
  _atom_site_fract_z
  _atom_site_occupancy
  C   C1        1.0  0.55752  0.87049  0.11842  1.0000
  C   C2        1.0  0.51403  0.86489  0.17722  1.0000
  C   C3        1.0  0.48395  0.90431  0.22104  1.0000
  C   C4        1.0  0.49363  0.94988  0.20089  1.0000
  C   C5        1.0  0.53673  0.95538  0.13769  1.0000
  C   C6        1.0  0.56821  0.91405  0.09963  1.0000
  C   C7        1.0  0.54626  0.00028  0.11665  1.0000
  H   H1        1.0  0.58249  0.83989  0.08866  1.0000
  H   H2        1.0  0.45194  0.89986  0.27065  1.0000
  H   H3        1.0  0.60107  0.91785  0.05367  1.0000
  H   H4        1.0  0.57823  0.00444  0.06590  1.0000
  N   N1        1.0  0.49950  0.82200  0.19691  1.0000
  C   C8        1.0  0.51514  0.78491  0.11781  1.0000
  H   H5        1.0  0.53973  0.78504  0.03052  1.0000
  C   C9        1.0  0.09578  0.58097  0.43132  1.0000
  C   C10       1.0  0.12627  0.53958  0.38695  1.0000
  C   C11       1.0  0.10820  0.49744  0.37549  1.0000
  C   C12       1.0  0.05966  0.49456  0.39920  1.0000
  C   C13       1.0  0.02919  0.53635  0.44435  1.0000
  C   C14       1.0  0.04948  0.57904  0.46171  1.0000
  C   C15       1.0  0.98121  0.53379  0.46838  1.0000
  H   H6        1.0  0.11049  0.61387  0.44593  1.0000
  H   H7        1.0  0.13176  0.46614  0.34368  1.0000
  H   H8        1.0  0.02746  0.61036  0.50090  1.0000
  H   H9        1.0  0.95843  0.56531  0.50296  1.0000
  N   N2        1.0  0.17472  0.53853  0.36352  1.0000
  C   C16       1.0  0.18789  0.57347  0.30291  1.0000
  H   H10       1.0  0.16098  0.60516  0.25627  1.0000
  C   C17       1.0  0.57766  0.39138  0.22785  1.0000
  C   C18       1.0  0.52618  0.38966  0.20898  1.0000
  C   C19       1.0  0.49255  0.43225  0.21436  1.0000
  C   C20       1.0  0.51132  0.47580  0.22438  1.0000
  C   C21       1.0  0.56385  0.47605  0.23266  1.0000
  C   C22       1.0  0.59774  0.43300  0.24211  1.0000
  C   C23       1.0  0.58033  0.52006  0.23369  1.0000
  C   C24       1.0  0.54817  0.56120  0.23374  1.0000
  H   H11       1.0  0.60343  0.35858  0.23109  1.0000
  H   H12       1.0  0.61951  0.52083  0.23409  1.0000
  H   H13       1.0  0.56347  0.59356  0.24396  1.0000
  C   C25       1.0  0.47304  0.65141  0.17561  1.0000
  C   C26       1.0  0.51092  0.65600  0.09194  1.0000
  C   C27       1.0  0.52467  0.69912  0.07548  1.0000
  C   C28       1.0  0.49980  0.74020  0.13611  1.0000
  C   C29       1.0  0.45930  0.73659  0.20833  1.0000
  C   C30       1.0  0.44668  0.69333  0.22867  1.0000
  H   H14       1.0  0.52852  0.62561  0.03308  1.0000
  H   H15       1.0  0.55435  0.70128  0.01104  1.0000
  H   H16       1.0  0.43923  0.76829  0.25308  1.0000
  H   H17       1.0  0.41734  0.69188  0.29494  1.0000
  C   C31       1.0  0.45085  0.11911  0.24467  1.0000
  C   C32       1.0  0.49307  0.12516  0.17996  1.0000
  C   C33       1.0  0.52459  0.08614  0.14023  1.0000
  C   C34       1.0  0.51497  0.04036  0.15758  1.0000
  C   C35       1.0  0.47204  0.03471  0.22202  1.0000
  C   C36       1.0  0.44110  0.07540  0.26673  1.0000
  C   C37       1.0  0.46256  0.98978  0.24210  1.0000
  H   H18       1.0  0.42839  0.14984  0.28556  1.0000
  H   H19       1.0  0.55678  0.09103  0.09245  1.0000
  H   H20       1.0  0.41039  0.07104  0.32359  1.0000
  H   H21       1.0  0.43065  0.98559  0.29264  1.0000
  N   N3        1.0  0.50555  0.16933  0.16916  1.0000
  C   C38       1.0  0.47102  0.20498  0.11858  1.0000
  H   H22       1.0  0.43090  0.20169  0.06354  1.0000
  C   C39       1.0  0.92252  0.40657  0.38552  1.0000
  C   C40       1.0  0.89112  0.44806  0.42425  1.0000
  C   C41       1.0  0.91162  0.48903  0.46044  1.0000
  C   C42       1.0  0.96129  0.49172  0.44553  1.0000
  C   C43       1.0  0.99193  0.45001  0.40055  1.0000
  C   C44       1.0  0.97110  0.40761  0.37562  1.0000
  C   C45       1.0  0.04034  0.45227  0.38089  1.0000
  H   H23       1.0  0.90762  0.37381  0.36594  1.0000
  H   H24       1.0  0.88801  0.52020  0.49309  1.0000
  H   H25       1.0  0.99471  0.37598  0.34651  1.0000
  H   H26       1.0  0.06332  0.42081  0.34687  1.0000
  N   N4        1.0  0.84009  0.45000  0.42414  1.0000
  C   C46       1.0  0.81384  0.42050  0.33214  1.0000
  H   H27       1.0  0.83005  0.39363  0.25232  1.0000
  C   C47       1.0  0.41137  0.60347  0.22097  1.0000
  C   C48       1.0  0.46037  0.60553  0.20591  1.0000
  C   C49       1.0  0.49545  0.56281  0.22198  1.0000
  C   C50       1.0  0.47750  0.51921  0.22562  1.0000
  C   C51       1.0  0.42588  0.51887  0.23037  1.0000
  C   C52       1.0  0.39346  0.56226  0.23970  1.0000
  C   C53       1.0  0.40873  0.47475  0.21868  1.0000
  C   C54       1.0  0.44047  0.43360  0.21190  1.0000
  H   H28       1.0  0.38530  0.63599  0.21765  1.0000
  H   H29       1.0  0.36907  0.47397  0.21193  1.0000
  H   H30       1.0  0.42586  0.40090  0.20469  1.0000
  C   C55       1.0  0.34138  0.56590  0.26138  1.0000
  C   C56       1.0  0.30301  0.60230  0.18425  1.0000
  C   C57       1.0  0.25345  0.60552  0.20029  1.0000
  C   C58       1.0  0.23989  0.57154  0.28948  1.0000
  C   C59       1.0  0.27809  0.53567  0.36940  1.0000
  C   C60       1.0  0.32769  0.53357  0.35830  1.0000
  H   H31       1.0  0.31169  0.62693  0.10363  1.0000
  H   H32       1.0  0.22444  0.63348  0.13649  1.0000
  H   H33       1.0  0.26776  0.51078  0.44478  1.0000
  H   H34       1.0  0.35694  0.50724  0.42973  1.0000
  C   C61       1.0  0.55353  0.88075  0.63095  1.0000
  C   C62       1.0  0.50792  0.87506  0.67644  1.0000
  C   C63       1.0  0.47642  0.91439  0.71351  1.0000
  C   C64       1.0  0.48721  0.96002  0.70125  1.0000
  C   C65       1.0  0.53294  0.96540  0.65339  1.0000
  C   C66       1.0  0.56553  0.92422  0.62069  1.0000
  C   C67       1.0  0.54380  0.01018  0.64009  1.0000
  H   H35       1.0  0.57913  0.85007  0.60580  1.0000
  H   H36       1.0  0.44273  0.90978  0.75304  1.0000
  H   H37       1.0  0.60027  0.92804  0.58619  1.0000
  H   H38       1.0  0.57782  0.01428  0.60133  1.0000
  N   N5        1.0  0.49361  0.83183  0.69240  1.0000
  C   C68       1.0  0.51167  0.79498  0.61713  1.0000
  H   H39       1.0  0.53701  0.79614  0.53324  1.0000
  C   C69       1.0  0.09711  0.58734  0.92451  1.0000
  C   C70       1.0  0.12829  0.54582  0.88440  1.0000
  C   C71       1.0  0.11062  0.50352  0.87432  1.0000
  C   C72       1.0  0.06205  0.50049  0.89763  1.0000
  C   C73       1.0  0.03170  0.54210  0.94492  1.0000
  C   C74       1.0  0.05110  0.58518  0.95718  1.0000
  C   C75       1.0  0.98442  0.53895  0.97395  1.0000
  H   H40       1.0  0.11125  0.62044  0.93317  1.0000
  H   H41       1.0  0.13476  0.47230  0.84472  1.0000
  H   H42       1.0  0.02828  0.61652  0.99280  1.0000
  H   H43       1.0  0.96179  0.57000  0.01251  1.0000
  N   N6        1.0  0.17697  0.54490  0.86296  1.0000
  C   C76       1.0  0.18929  0.57834  0.79113  1.0000
  H   H44       1.0  0.16147  0.60839  0.73324  1.0000
  C   C77       1.0  0.57988  0.39922  0.72774  1.0000
  C   C78       1.0  0.52835  0.39751  0.70591  1.0000
  C   C79       1.0  0.49510  0.44001  0.71455  1.0000
  C   C80       1.0  0.51386  0.48351  0.72477  1.0000
  C   C81       1.0  0.56665  0.48377  0.73747  1.0000
  C   C82       1.0  0.60056  0.44061  0.74886  1.0000
  C   C83       1.0  0.58283  0.52791  0.73869  1.0000
  C   C84       1.0  0.55009  0.56903  0.73098  1.0000
  H   H45       1.0  0.60532  0.36639  0.72886  1.0000
  H   H46       1.0  0.62230  0.52898  0.74472  1.0000
  H   H47       1.0  0.56523  0.60141  0.73792  1.0000
  C   C85       1.0  0.47411  0.65935  0.67246  1.0000
  C   C86       1.0  0.51182  0.66537  0.58999  1.0000
  C   C87       1.0  0.52425  0.70921  0.57464  1.0000
  C   C88       1.0  0.49806  0.74947  0.63519  1.0000
  C   C89       1.0  0.45819  0.74434  0.70848  1.0000
  C   C90       1.0  0.44703  0.70047  0.72840  1.0000
  H   H48       1.0  0.53012  0.63560  0.53007  1.0000
  H   H49       1.0  0.55358  0.71264  0.51015  1.0000
  H   H50       1.0  0.43734  0.77548  0.75358  1.0000
  H   H51       1.0  0.41803  0.69777  0.79494  1.0000
  C   C91       1.0  0.44422  0.12958  0.73977  1.0000
  C   C92       1.0  0.48893  0.13517  0.68894  1.0000
  C   C93       1.0  0.52187  0.09592  0.65928  1.0000
  C   C94       1.0  0.51122  0.05033  0.67231  1.0000
  C   C95       1.0  0.46580  0.04494  0.72213  1.0000
  C   C96       1.0  0.43358  0.08594  0.75791  1.0000
  C   C97       1.0  0.45508  0.00007  0.73606  1.0000
  H   H52       1.0  0.42026  0.16056  0.77246  1.0000
  H   H53       1.0  0.55588  0.10061  0.62169  1.0000
  H   H54       1.0  0.40083  0.08168  0.80387  1.0000
  H   H55       1.0  0.42117  0.99608  0.77572  1.0000
  N   N7        1.0  0.50227  0.17889  0.67834  1.0000
  C   C98       1.0  0.46843  0.21483  0.62447  1.0000
  H   H56       1.0  0.42816  0.21215  0.56881  1.0000
  C   C99       1.0  0.92573  0.41147  0.88804  1.0000
  C   C100      1.0  0.89492  0.45268  0.93206  1.0000
  C   C101      1.0  0.91562  0.49349  0.96976  1.0000
  C   C102      1.0  0.96476  0.49673  0.95107  1.0000
  C   C103      1.0  0.99476  0.45545  0.90040  1.0000
  C   C104      1.0  0.97384  0.41304  0.87410  1.0000
  C   C105      1.0  0.04271  0.45818  0.87749  1.0000
  H   H57       1.0  0.91100  0.37858  0.86786  1.0000
  H   H58       1.0  0.89214  0.52414  0.00647  1.0000
  H   H59       1.0  0.99695  0.38160  0.84111  1.0000
  H   H60       1.0  0.06509  0.42704  0.83875  1.0000
  N   N8        1.0  0.84418  0.45486  0.93597  1.0000
  C   C106      1.0  0.81696  0.42652  0.84128  1.0000
  H   H61       1.0  0.83224  0.40091  0.75548  1.0000
  C   C107      1.0  0.41240  0.61061  0.70990  1.0000
  C   C108      1.0  0.46171  0.61299  0.69852  1.0000
  C   C109      1.0  0.49721  0.57048  0.71647  1.0000
  C   C110      1.0  0.47967  0.52682  0.72277  1.0000
  C   C111      1.0  0.42808  0.52622  0.72736  1.0000
  C   C112      1.0  0.39493  0.56936  0.73096  1.0000
  C   C113      1.0  0.41166  0.48199  0.72287  1.0000
  C   C114      1.0  0.44355  0.44103  0.71699  1.0000
  H   H62       1.0  0.38582  0.64291  0.70312  1.0000
  H   H63       1.0  0.37246  0.48067  0.72060  1.0000
  H   H64       1.0  0.42949  0.40825  0.71526  1.0000
  C   C115      1.0  0.51159  0.35136  0.68097  1.0000
  C   C116      1.0  0.46661  0.34333  0.56256  1.0000
  C   C117      1.0  0.45199  0.29925  0.54367  1.0000
  C   C118      1.0  0.48283  0.26133  0.63832  1.0000
  C   C119      1.0  0.52845  0.26896  0.75347  1.0000
  C   C120      1.0  0.54216  0.31304  0.77547  1.0000
  H   H65       1.0  0.44370  0.37184  0.48255  1.0000
  H   H66       1.0  0.41694  0.29401  0.45163  1.0000
  H   H67       1.0  0.55164  0.23964  0.82849  1.0000
  H   H68       1.0  0.57632  0.31862  0.87117  1.0000
  C   C121      1.0  0.69329  0.46430  0.40487  1.0000
  C   C122      1.0  0.65921  0.43925  0.29391  1.0000
  C  Sn1       1.0  0.67683  0.40324  0.19278  1.0000
  C  Sn2       1.0  0.72956  0.39217  0.20324  1.0000
  C   C123      1.0  0.76335  0.41742  0.31473  1.0000
  C   C124      1.0  0.74531  0.45340  0.41531  1.0000
  H   H69       1.0  0.67934  0.49212  0.48277  1.0000
  O  Te1       1.0  0.64226  0.37857  0.08256  1.0000
  O  Te2       1.0  0.74820  0.35634  0.10365  1.0000
  H   H70       1.0  0.77171  0.47277  0.50129  1.0000
  Mg  Mg1       1.0  0.76061  0.33570  0.97276  1.0000
  C   C125      1.0  0.69526  0.39500  0.68960  1.0000
  C   C126      1.0  0.66295  0.42536  0.76826  1.0000
  C  Sn3       1.0  0.68185  0.45969  0.88204  1.0000
  C  Sn4       1.0  0.73409  0.46362  0.91744  1.0000
  C   C127      1.0  0.76610  0.43311  0.83799  1.0000
  C   C128      1.0  0.74679  0.39887  0.72439  1.0000
  H   H71       1.0  0.68032  0.36853  0.60163  1.0000
  O  Te3       1.0  0.64905  0.48972  0.95956  1.0000
  O  Te4       1.0  0.67947  0.49470  0.03058  1.0000
  H   H72       1.0  0.77181  0.37539  0.66342  1.0000
  Mg  Mg2       1.0  0.61960  0.52746  0.10444  1.0000
  C   C129      1.0  0.29374  0.53616  0.87486  1.0000
  C   C130      1.0  0.25062  0.56825  0.80467  1.0000
  C  Sn5       1.0  0.25349  0.60332  0.69789  1.0000
  C  Sn6       1.0  0.30044  0.60623  0.66090  1.0000
  C   C131      1.0  0.34334  0.57395  0.73166  1.0000
  C   C132      1.0  0.34005  0.53900  0.83839  1.0000
  H   H73       1.0  0.29119  0.50911  0.95737  1.0000
  O  Te5       1.0  0.21005  0.63511  0.62888  1.0000
  O  Te6       1.0  0.30436  0.64093  0.55453  1.0000
  H   H74       1.0  0.37343  0.51414  0.89263  1.0000
  Mg  Mg3       1.0  0.23455  0.67614  0.49118  1.0000
  C   C133      1.0  0.45868  0.32607  0.03360  1.0000
  C   C134      1.0  0.49786  0.34204  0.15685  1.0000
  C  Sn7       1.0  0.53235  0.31094  0.27232  1.0000
  C  Sn8       1.0  0.52743  0.26298  0.26390  1.0000
  C   C135      1.0  0.48813  0.24734  0.14005  1.0000
  C   C136      1.0  0.45382  0.27877  0.02516  1.0000
  H   H75       1.0  0.50667  0.35330  0.94464  1.0000
  O  Te7       1.0  0.57126  0.32749  0.39470  1.0000
  O  Te8       1.0  0.56139  0.23114  0.37770  1.0000
  H   H76       1.0  0.49802  0.26931  0.92968  1.0000
  Mg  Mg4       1.0  0.60810  0.27054  0.52165  1.0000
