data_image0
_chemical_formula_structural       NCH2BOC2NCH2BOC2NCH2BOC2NCH2BOC2NCH2BOC2NCH2BOC4Sn2C2HTe2HMgC2Sn2C2HTe2HMgC2Sn2C2HTe2HMgC2Sn2C2HTe2HMgC2Sn2C2HTe2HMgC2Sn2C2HTe2HMgC2Sn2C2HTe2HMgC2Sn2C2HTe2HMgC2Sn2C2HTe2HMgC2Sn2C2HTe2HMgC2Sn2C2HTe2HMgC2Sn2C2HTe2HMg
_chemical_formula_sum              "N6 C66 H36 B6 O6 Sn24 Te24 Mg12"
_cell_length_a       26.1805
_cell_length_b       26.1995
_cell_length_c       8.43644
_cell_angle_alpha    118.507
_cell_angle_beta     60.1855
_cell_angle_gamma    119.916

_symmetry_space_group_name_H-M    'P1'
_space_group_IT_number       1

loop_
  _space_group_symop_operation_xyz
  'x, y, z'

loop_
  _atom_site_type_symbol
  _atom_site_label
  _atom_site_symmetry_multiplicity
  _atom_site_fract_x
  _atom_site_fract_y
  _atom_site_fract_z
  _atom_site_occupancy
  N   N1        1.0  0.49055  0.47879  0.27572  1.0000
  C   C1        1.0  0.51434  0.53147  0.24539  1.0000
  H   H1        1.0  0.56499  0.55774  0.20676  1.0000
  H   H2        1.0  0.72224  0.43951  0.21304  1.0000
  B   B1        1.0  0.36707  0.64307  0.25799  1.0000
  O   O1        1.0  0.30543  0.60924  0.26333  1.0000
  C   C2        1.0  0.63470  0.36316  0.24064  1.0000
  C   C3        1.0  0.69746  0.39411  0.23310  1.0000
  N   N2        1.0  0.52504  0.02062  0.24829  1.0000
  C   C4        1.0  0.46810  0.98600  0.25219  1.0000
  H   H3        1.0  0.43517  0.00320  0.26483  1.0000
  H   H4        1.0  0.55652  0.27852  0.26542  1.0000
  B   B2        1.0  0.36176  0.72789  0.23147  1.0000
  O   O2        1.0  0.39468  0.70287  0.24564  1.0000
  C   C5        1.0  0.63731  0.27277  0.25341  1.0000
  C   C6        1.0  0.60557  0.30272  0.25250  1.0000
  N   N3        1.0  0.98244  0.50760  0.24081  1.0000
  C   C7        1.0  0.01249  0.49118  0.28165  1.0000
  H   H5        1.0  0.99060  0.44989  0.32779  1.0000
  H   H6        1.0  0.72314  0.28530  0.26624  1.0000
  B   B3        1.0  0.27212  0.63352  0.24806  1.0000
  O   O3        1.0  0.30109  0.69240  0.22695  1.0000
  C   C8        1.0  0.72962  0.36740  0.24697  1.0000
  C   C9        1.0  0.69898  0.30647  0.25469  1.0000
  N   N4        1.0  0.49485  0.47571  0.75872  1.0000
  C   C10       1.0  0.51462  0.53328  0.77153  1.0000
  H   H7        1.0  0.56011  0.56631  0.78835  1.0000
  H   H8        1.0  0.71718  0.44188  0.76434  1.0000
  B   B4        1.0  0.36793  0.63995  0.75783  1.0000
  O   O4        1.0  0.30685  0.60484  0.75759  1.0000
  C   C11       1.0  0.63484  0.36075  0.74616  1.0000
  C   C12       1.0  0.69610  0.39299  0.75109  1.0000
  N   N5        1.0  0.52201  0.01687  0.75091  1.0000
  C   C13       1.0  0.47180  0.97784  0.70876  1.0000
  H   H9        1.0  0.44815  0.98901  0.65849  1.0000
  H   H10       1.0  0.56082  0.27253  0.73184  1.0000
  B   B5        1.0  0.36030  0.72551  0.74363  1.0000
  O   O5        1.0  0.39370  0.70096  0.75815  1.0000
  C   C14       1.0  0.63869  0.26861  0.74446  1.0000
  C   C15       1.0  0.60740  0.29853  0.74134  1.0000
  N   N6        1.0  0.98052  0.50398  0.76079  1.0000
  C   C16       1.0  0.01371  0.48389  0.77545  1.0000
  H   H11       1.0  0.99703  0.43692  0.78188  1.0000
  H   H12       1.0  0.72725  0.27955  0.73666  1.0000
  B   B6        1.0  0.27254  0.62929  0.74696  1.0000
  O   O6        1.0  0.30025  0.68892  0.73325  1.0000
  C   C17       1.0  0.73043  0.36408  0.74407  1.0000
  C   C18       1.0  0.70101  0.30190  0.74065  1.0000
  C   C19       1.0  0.62294  0.47186  0.26927  1.0000
  C   C20       1.0  0.60476  0.41067  0.25919  1.0000
  C  Sn1       1.0  0.54643  0.36827  0.24355  1.0000
  C  Sn2       1.0  0.50565  0.38762  0.23788  1.0000
  C   C21       1.0  0.52429  0.44893  0.24792  1.0000
  C   C22       1.0  0.58275  0.49098  0.26361  1.0000
  H   H13       1.0  0.66819  0.50439  0.28130  1.0000
  O  Te1       1.0  0.52899  0.30732  0.23371  1.0000
  O  Te2       1.0  0.44709  0.34620  0.22224  1.0000
  H   H14       1.0  0.59683  0.53834  0.27129  1.0000
  Mg  Mg1       1.0  0.44446  0.26806  0.21341  1.0000
  C   C23       1.0  0.39628  0.52533  0.28142  1.0000
  C   C24       1.0  0.46022  0.54844  0.25261  1.0000
  C  Sn3       1.0  0.49672  0.60831  0.23938  1.0000
  C  Sn4       1.0  0.46854  0.64563  0.25539  1.0000
  C   C25       1.0  0.40452  0.62211  0.28433  1.0000
  C   C26       1.0  0.36845  0.56212  0.29730  1.0000
  H   H15       1.0  0.36835  0.47894  0.29156  1.0000
  O  Te3       1.0  0.56054  0.63066  0.21051  1.0000
  O  Te4       1.0  0.50392  0.70564  0.24277  1.0000
  H   H16       1.0  0.31893  0.54426  0.31972  1.0000
  Mg  Mg2       1.0  0.58911  0.71538  0.20280  1.0000
  C   C27       1.0  0.63035  0.16927  0.31246  1.0000
  C   C28       1.0  0.61577  0.20148  0.25694  1.0000
  C  Sn5       1.0  0.56357  0.17284  0.19968  1.0000
  C  Sn6       1.0  0.52532  0.11082  0.19817  1.0000
  C   C29       1.0  0.54028  0.07902  0.25410  1.0000
  C   C30       1.0  0.59264  0.10811  0.31108  1.0000
  H   H17       1.0  0.67084  0.19178  0.35665  1.0000
  O  Te5       1.0  0.54969  0.20568  0.14458  1.0000
  O  Te6       1.0  0.47286  0.08110  0.14165  1.0000
  H   H18       1.0  0.60389  0.08317  0.35418  1.0000
  Mg  Mg3       1.0  0.47324  0.14517  0.07907  1.0000
  C   C31       1.0  0.36801  0.87058  0.23907  1.0000
  C   C32       1.0  0.42606  0.91433  0.25367  1.0000
  C  Sn7       1.0  0.46971  0.89684  0.24699  1.0000
  C  Sn8       1.0  0.45482  0.83436  0.22522  1.0000
  C   C33       1.0  0.39663  0.79094  0.21060  1.0000
  C   C34       1.0  0.35330  0.80894  0.21752  1.0000
  H   H19       1.0  0.33449  0.88450  0.24432  1.0000
  O  Te7       1.0  0.52748  0.94115  0.26186  1.0000
  O  Te8       1.0  0.49758  0.81562  0.21804  1.0000
  H   H20       1.0  0.30836  0.77505  0.20608  1.0000
  Mg  Mg4       1.0  0.57018  0.89304  0.24440  1.0000
  C   C35       1.0  0.88225  0.39126  0.20669  1.0000
  C   C36       1.0  0.91639  0.45414  0.22829  1.0000
  C  Sn9       1.0  0.88738  0.49408  0.27215  1.0000
  C  Sn10      1.0  0.82300  0.47049  0.29478  1.0000
  C   C37       1.0  0.78925  0.40751  0.27300  1.0000
  C   C38       1.0  0.81874  0.36796  0.22905  1.0000
  H   H21       1.0  0.90506  0.36065  0.17278  1.0000
  O  Te9       1.0  0.92218  0.55677  0.29317  1.0000
  O  Te10      1.0  0.79283  0.50938  0.33869  1.0000
  H   H22       1.0  0.79229  0.31928  0.21245  1.0000
  Mg  Mg5       1.0  0.86017  0.59132  0.35312  1.0000
  C   C39       1.0  0.12101  0.60044  0.24145  1.0000
  C   C40       1.0  0.08490  0.54045  0.25404  1.0000
  C  Sn11      1.0  0.10852  0.50826  0.27868  1.0000
  C  Sn12      1.0  0.16942  0.53679  0.29096  1.0000
  C   C41       1.0  0.20515  0.59685  0.27834  1.0000
  C   C42       1.0  0.18107  0.62863  0.25362  1.0000
  H   H23       1.0  0.10237  0.62505  0.22243  1.0000
  O  Te11      1.0  0.07184  0.44834  0.29091  1.0000
  O  Te12      1.0  0.19417  0.50568  0.31566  1.0000
  H   H24       1.0  0.20902  0.67509  0.24401  1.0000
  Mg  Mg6       1.0  0.12616  0.42481  0.32441  1.0000
  C   C43       1.0  0.51905  0.36565  0.79974  1.0000
  C   C44       1.0  0.58349  0.38230  0.75108  1.0000
  C  Sn13      1.0  0.62478  0.43753  0.70730  1.0000
  C  Sn14      1.0  0.60099  0.47674  0.71250  1.0000
  C   C45       1.0  0.53644  0.45968  0.76148  1.0000
  C   C46       1.0  0.49554  0.40430  0.80498  1.0000
  H   H25       1.0  0.48740  0.32281  0.83350  1.0000
  O  Te13      1.0  0.68903  0.45345  0.65890  1.0000
  O  Te14      1.0  0.64121  0.53221  0.66945  1.0000
  H   H26       1.0  0.44565  0.39144  0.84277  1.0000
  Mg  Mg7       1.0  0.72502  0.53377  0.61169  1.0000
  C   C47       1.0  0.48271  0.64895  0.76992  1.0000
  C   C48       1.0  0.42371  0.62028  0.75060  1.0000
  C  Sn15      1.0  0.38927  0.55869  0.74802  1.0000
  C  Sn16      1.0  0.41449  0.52531  0.76518  1.0000
  C   C49       1.0  0.47354  0.55443  0.78458  1.0000
  C   C50       1.0  0.50760  0.61608  0.78693  1.0000
  H   H27       1.0  0.50905  0.69666  0.77184  1.0000
  O  Te15      1.0  0.33041  0.53074  0.72854  1.0000
  O  Te16      1.0  0.38106  0.46371  0.76311  1.0000
  H   H28       1.0  0.55327  0.63828  0.80202  1.0000
  Mg  Mg8       1.0  0.30282  0.44587  0.73341  1.0000
  C   C51       1.0  0.51264  0.12470  0.77242  1.0000
  C   C52       1.0  0.53794  0.08388  0.74493  1.0000
  C  Sn17      1.0  0.60053  0.10454  0.72762  1.0000
  C  Sn18      1.0  0.63836  0.16725  0.73815  1.0000
  C   C53       1.0  0.61260  0.20772  0.76582  1.0000
  C   C54       1.0  0.54992  0.18656  0.78290  1.0000
  H   H29       1.0  0.46414  0.10834  0.78574  1.0000
  O  Te17      1.0  0.12416  0.06314  0.70014  1.0000
  O  Te18      1.0  0.70105  0.18912  0.72138  1.0000
  H   H30       1.0  0.53033  0.21818  0.80431  1.0000
  Mg  Mg9       1.0  0.71308  0.11493  0.68533  1.0000
  C   C55       1.0  0.37183  0.86201  0.69730  1.0000
  C   C56       1.0  0.42794  0.90766  0.72319  1.0000
  C  Sn19      1.0  0.46755  0.89432  0.75212  1.0000
  C  Sn20      1.0  0.45056  0.83411  0.75506  1.0000
  C   C57       1.0  0.39435  0.78875  0.72887  1.0000
  C   C58       1.0  0.35505  0.80261  0.70010  1.0000
  H   H31       1.0  0.34144  0.87272  0.67492  1.0000
  O  Te19      1.0  0.52342  0.94048  0.77783  1.0000
  O  Te20      1.0  0.48929  0.81952  0.78363  1.0000
  H   H32       1.0  0.31164  0.76725  0.67993  1.0000
  Mg  Mg10      1.0  0.56059  0.89810  0.81190  1.0000
  C   C59       1.0  0.83736  0.37854  0.80235  1.0000
  C   C60       1.0  0.80058  0.39451  0.76975  1.0000
  C  Sn21      1.0  0.82609  0.44772  0.71724  1.0000
  C  Sn22      1.0  0.88963  0.48554  0.69705  1.0000
  C   C61       1.0  0.92605  0.46914  0.72985  1.0000
  C   C62       1.0  0.90004  0.41581  0.78240  1.0000
  H   H33       1.0  0.81725  0.33726  0.84290  1.0000
  O  Te21      1.0  0.78868  0.46300  0.68528  1.0000
  O  Te22      1.0  0.91633  0.53895  0.64464  1.0000
  H   H34       1.0  0.92854  0.40343  0.80750  1.0000
  Mg  Mg11      1.0  0.84636  0.54039  0.61663  1.0000
  C   C63       1.0  0.15163  0.61596  0.76229  1.0000
  C   C64       1.0  0.19413  0.59991  0.76774  1.0000
  C  Sn23      1.0  0.17775  0.54051  0.76905  1.0000
  C  Sn24      1.0  0.11767  0.49645  0.76477  1.0000
  C   C65       1.0  0.07551  0.51295  0.75920  1.0000
  C   C66       1.0  0.09238  0.57253  0.75800  1.0000
  H   H35       1.0  0.16470  0.66205  0.76126  1.0000
  O  Te23      1.0  0.22077  0.52525  0.77458  1.0000
  O  Te24      1.0  0.10009  0.43675  0.76589  1.0000
  H   H36       1.0  0.05948  0.58493  0.75366  1.0000
  Mg  Mg12      1.0  0.17501  0.43802  0.77410  1.0000
