data_image0
_chemical_formula_structural       OC2HC2OC2HC2OC2HC2OC2HC2OC2HC2OC2HC2OC2HC2OC2HC2OC2HC2OC2HC2OC2HC2OC2HC2B6OC2HC2OC2HC2OC2HC2OC2HC2OC2HC2OC2HC2OC2HC2OC2HC2OC2HC2OC2HC2OC2HC2OC2HC2B6SnCSn2CSnTe4Mg2SnCSn2CSnTe4Mg2SnCSn2CSnTe4Mg2SnCSn2CSnTe4Mg2SnCSn2CSnTe4Mg2SnCSn2CSnTe4Mg2
_chemical_formula_sum              "O24 C108 H24 B12 Sn24 Te24 Mg12"
_cell_length_a       35.3121
_cell_length_b       35.3272
_cell_length_c       8.07886
_cell_angle_alpha    106.372
_cell_angle_beta     105.517
_cell_angle_gamma    120.075

_symmetry_space_group_name_H-M    'P1'
_space_group_IT_number       1

loop_
  _space_group_symop_operation_xyz
  'x, y, z'

loop_
  _atom_site_type_symbol
  _atom_site_label
  _atom_site_symmetry_multiplicity
  _atom_site_fract_x
  _atom_site_fract_y
  _atom_site_fract_z
  _atom_site_occupancy
  O   O1        1.0  0.12649  0.59584  0.01574  1.0000
  C   C1        1.0  0.16812  0.60330  0.00731  1.0000
  C   C2        1.0  0.20611  0.64315  0.00529  1.0000
  H   H1        1.0  0.20597  0.67390  0.00669  1.0000
  C   C3        1.0  0.24566  0.64261  0.00146  1.0000
  C   C4        1.0  0.28534  0.68245  0.99933  1.0000
  O   O2        1.0  0.40750  0.52886  0.99021  1.0000
  C   C5        1.0  0.39909  0.56317  0.99056  1.0000
  C   C6        1.0  0.35925  0.56154  0.99195  1.0000
  H   H2        1.0  0.32879  0.53098  0.99415  1.0000
  C   C7        1.0  0.35966  0.60189  0.99312  1.0000
  C   C8        1.0  0.31973  0.60183  0.99424  1.0000
  O   O3        1.0  0.47405  0.87975  0.00754  1.0000
  C   C9        1.0  0.43945  0.83644  0.00373  1.0000
  C   C10       1.0  0.44095  0.79793  0.00062  1.0000
  H   H3        1.0  0.47153  0.79790  0.99819  1.0000
  C   C11       1.0  0.40040  0.75745  0.99717  1.0000
  C   C12       1.0  0.40052  0.71752  0.99653  1.0000
  O   O4        1.0  0.87904  0.40593  0.99989  1.0000
  C   C13       1.0  0.83677  0.39802  0.00245  1.0000
  C   C14       1.0  0.79802  0.35780  0.00006  1.0000
  H   H4        1.0  0.79778  0.32685  0.99862  1.0000
  C   C15       1.0  0.75825  0.35836  0.00010  1.0000
  C   C16       1.0  0.71798  0.31847  0.99945  1.0000
  O   O5        1.0  0.59615  0.47225  0.99198  1.0000
  C   C17       1.0  0.60422  0.43778  0.99340  1.0000
  C   C18       1.0  0.64430  0.43941  0.99560  1.0000
  H   H5        1.0  0.67506  0.47004  0.99495  1.0000
  C   C19       1.0  0.64366  0.39908  0.99626  1.0000
  C   C20       1.0  0.68375  0.39897  0.99857  1.0000
  O   O6        1.0  0.52890  0.12340  0.99811  1.0000
  C   C21       1.0  0.56332  0.16603  0.99815  1.0000
  C   C22       1.0  0.56173  0.20423  0.99715  1.0000
  H   H6        1.0  0.53115  0.20444  0.99790  1.0000
  C   C23       1.0  0.60226  0.24416  0.99850  1.0000
  C   C24       1.0  0.60220  0.28387  0.99592  1.0000
  O   O7        1.0  0.59559  0.12448  0.00754  1.0000
  C   C25       1.0  0.60340  0.16643  0.00215  1.0000
  C   C26       1.0  0.64345  0.20462  0.00202  1.0000
  H   H7        1.0  0.67431  0.20465  0.00380  1.0000
  C   C27       1.0  0.64302  0.24427  0.99976  1.0000
  C   C28       1.0  0.68304  0.28411  0.99919  1.0000
  O   O8        1.0  0.53006  0.40683  0.99164  1.0000
  C   C29       1.0  0.56422  0.39821  0.99209  1.0000
  C   C30       1.0  0.56219  0.35813  0.99241  1.0000
  H   H8        1.0  0.53153  0.32782  0.99470  1.0000
  C   C31       1.0  0.60241  0.35829  0.99346  1.0000
  C   C32       1.0  0.60214  0.31828  0.99411  1.0000
  O   O9        1.0  0.88048  0.47277  0.00890  1.0000
  C   C33       1.0  0.83744  0.43822  0.00650  1.0000
  C   C34       1.0  0.79919  0.43996  0.00564  1.0000
  H   H9        1.0  0.79952  0.47084  0.00574  1.0000
  C   C35       1.0  0.75864  0.39928  0.00119  1.0000
  C   C36       1.0  0.71854  0.39916  0.00008  1.0000
  O   O10       1.0  0.40660  0.87751  0.99524  1.0000
  C   C37       1.0  0.39906  0.83551  0.99914  1.0000
  C   C38       1.0  0.35898  0.79680  0.99746  1.0000
  H   H10       1.0  0.32795  0.79644  0.99582  1.0000
  C   C39       1.0  0.35959  0.75708  0.99764  1.0000
  C   C40       1.0  0.31982  0.71701  0.99847  1.0000
  O   O11       1.0  0.47286  0.59442  0.98846  1.0000
  C   C41       1.0  0.43865  0.60284  0.99054  1.0000
  C   C42       1.0  0.44045  0.64295  0.99218  1.0000
  H   H11       1.0  0.47090  0.67337  0.98952  1.0000
  C   C43       1.0  0.40045  0.64280  0.99447  1.0000
  C   C44       1.0  0.40053  0.68291  0.99609  1.0000
  O   O12       1.0  0.12523  0.52894  0.00430  1.0000
  C   C45       1.0  0.16766  0.56315  0.00240  1.0000
  C   C46       1.0  0.20571  0.56140  0.99955  1.0000
  H   H12       1.0  0.20583  0.53073  0.99968  1.0000
  C   C47       1.0  0.24557  0.60183  0.99999  1.0000
  C   C48       1.0  0.28519  0.60167  0.99624  1.0000
  B   B1        1.0  0.10014  0.54964  0.01351  1.0000
  B   B2        1.0  0.45321  0.54857  0.98854  1.0000
  B   B3        1.0  0.45320  0.90470  0.00125  1.0000
  B   B4        1.0  0.90591  0.45238  0.00449  1.0000
  B   B5        1.0  0.55017  0.45265  0.99091  1.0000
  B   B6        1.0  0.54925  0.09799  0.00401  1.0000
  O   O13       1.0  0.12340  0.59503  0.51766  1.0000
  C   C49       1.0  0.16476  0.60191  0.50858  1.0000
  C   C50       1.0  0.20317  0.64168  0.50796  1.0000
  H   H13       1.0  0.20367  0.67289  0.51177  1.0000
  C   C51       1.0  0.24227  0.64044  0.50287  1.0000
  C   C52       1.0  0.28224  0.68007  0.50112  1.0000
  O   O14       1.0  0.40324  0.52604  0.49326  1.0000
  C   C53       1.0  0.39508  0.56052  0.49381  1.0000
  C   C54       1.0  0.35550  0.55918  0.49687  1.0000
  H   H14       1.0  0.32543  0.52900  0.50194  1.0000
  C   C55       1.0  0.35582  0.59934  0.49618  1.0000
  C   C56       1.0  0.31606  0.59954  0.49772  1.0000
  O   O15       1.0  0.47019  0.87626  0.50171  1.0000
  C   C57       1.0  0.43580  0.83337  0.50051  1.0000
  C   C58       1.0  0.43713  0.79472  0.49699  1.0000
  H   H15       1.0  0.46742  0.79439  0.49246  1.0000
  C   C59       1.0  0.39679  0.75459  0.49577  1.0000
  C   C60       1.0  0.39664  0.71451  0.49478  1.0000
  O   O16       1.0  0.87577  0.40512  0.50323  1.0000
  C   C61       1.0  0.83333  0.39716  0.50440  1.0000
  C   C62       1.0  0.79460  0.35696  0.50203  1.0000
  H   H16       1.0  0.79458  0.32620  0.50157  1.0000
  C   C63       1.0  0.75461  0.35728  0.50033  1.0000
  C   C64       1.0  0.71433  0.31737  0.49959  1.0000
  O   O17       1.0  0.59162  0.46968  0.49159  1.0000
  C   C65       1.0  0.60009  0.43552  0.49352  1.0000
  C   C66       1.0  0.63996  0.43706  0.49318  1.0000
  H   H17       1.0  0.67039  0.46747  0.49019  1.0000
  C   C67       1.0  0.63963  0.39694  0.49486  1.0000
  C   C68       1.0  0.67979  0.39715  0.49667  1.0000
  O   O18       1.0  0.52625  0.12022  0.49388  1.0000
  C   C69       1.0  0.56054  0.16334  0.49580  1.0000
  C   C70       1.0  0.55846  0.20137  0.49545  1.0000
  H   H18       1.0  0.52749  0.20089  0.49567  1.0000
  C   C71       1.0  0.59886  0.24189  0.49833  1.0000
  C   C72       1.0  0.59853  0.28155  0.49597  1.0000
  O   O19       1.0  0.59401  0.12288  0.50773  1.0000
  C   C73       1.0  0.60114  0.16457  0.50164  1.0000
  C   C74       1.0  0.64104  0.20325  0.50249  1.0000
  H   H19       1.0  0.67222  0.20379  0.50499  1.0000
  C   C75       1.0  0.64000  0.24261  0.50019  1.0000
  C   C76       1.0  0.67973  0.28274  0.49968  1.0000
  O   O20       1.0  0.52647  0.40464  0.49649  1.0000
  C   C77       1.0  0.56064  0.39612  0.49512  1.0000
  C   C78       1.0  0.55876  0.35607  0.49477  1.0000
  H   H20       1.0  0.52812  0.32567  0.49667  1.0000
  C   C79       1.0  0.59883  0.35617  0.49403  1.0000
  C   C80       1.0  0.59876  0.31616  0.49438  1.0000
  O   O21       1.0  0.87697  0.47166  0.50912  1.0000
  C   C81       1.0  0.83388  0.43721  0.50666  1.0000
  C   C82       1.0  0.79540  0.43873  0.50404  1.0000
  H   H21       1.0  0.79532  0.46929  0.50205  1.0000
  C   C83       1.0  0.75497  0.39808  0.50030  1.0000
  C   C84       1.0  0.71482  0.39782  0.49870  1.0000
  O   O22       1.0  0.40399  0.87552  0.49832  1.0000
  C   C85       1.0  0.39604  0.83316  0.50025  1.0000
  C   C86       1.0  0.35613  0.79472  0.50039  1.0000
  H   H22       1.0  0.32557  0.79487  0.50201  1.0000
  C   C87       1.0  0.35638  0.75470  0.49888  1.0000
  C   C88       1.0  0.31671  0.71469  0.50042  1.0000
  O   O23       1.0  0.46825  0.59092  0.48729  1.0000
  C   C89       1.0  0.43439  0.59975  0.49099  1.0000
  C   C90       1.0  0.43616  0.63975  0.49133  1.0000
  H   H23       1.0  0.46639  0.66996  0.48697  1.0000
  C   C91       1.0  0.39630  0.63979  0.49456  1.0000
  C   C92       1.0  0.39635  0.67978  0.49467  1.0000
  O   O24       1.0  0.12061  0.52700  0.50057  1.0000
  C   C93       1.0  0.16348  0.56118  0.50093  1.0000
  C   C94       1.0  0.20127  0.55893  0.49852  1.0000
  H   H24       1.0  0.20084  0.52796  0.49815  1.0000
  C   C95       1.0  0.24161  0.59932  0.50075  1.0000
  C   C96       1.0  0.28133  0.59913  0.49869  1.0000
  B   B7        1.0  0.09626  0.54846  0.51185  1.0000
  B   B8        1.0  0.44858  0.54528  0.48915  1.0000
  B   B9        1.0  0.45006  0.90198  0.49954  1.0000
  B   B10       1.0  0.90254  0.45140  0.50649  1.0000
  B   B11       1.0  0.54596  0.45010  0.49341  1.0000
  B   B12       1.0  0.54746  0.09559  0.50202  1.0000
  C  Sn1       1.0  0.99700  0.46504  0.07100  1.0000
  C   C97       1.0  0.96783  0.48105  0.06095  1.0000
  C  Sn2       1.0  0.97763  0.51820  0.00895  1.0000
  C  Sn3       1.0  0.14230  0.66678  0.96596  1.0000
  C   C98       1.0  0.17144  0.65077  0.97598  1.0000
  C  Sn4       1.0  0.03678  0.48661  0.02801  1.0000
  O  Te1       1.0  0.98652  0.42786  0.12329  1.0000
  O  Te2       1.0  0.07285  0.66062  0.99996  1.0000
  O  Te3       1.0  0.15276  0.70400  0.91364  1.0000
  O  Te4       1.0  0.06642  0.47120  0.03697  1.0000
  Mg  Mg1       1.0  0.10181  0.71242  0.92160  1.0000
  Mg  Mg2       1.0  0.03748  0.41938  0.11522  1.0000
  C  Sn5       1.0  0.46347  0.44903  0.92309  1.0000
  C   C99       1.0  0.50990  0.46727  0.93288  1.0000
  C  Sn6       1.0  0.54471  0.51788  0.98967  1.0000
  C  Sn7       1.0  0.40800  0.42395  0.03780  1.0000
  C   C100      1.0  0.36159  0.40571  0.02804  1.0000
  C  Sn8       1.0  0.45164  0.48212  0.97123  1.0000
  O  Te5       1.0  0.42924  0.39830  0.86596  1.0000
  O  Te6       1.0  0.59089  0.53524  0.99830  1.0000
  O  Te7       1.0  0.44228  0.47472  0.09496  1.0000
  O  Te8       1.0  0.40549  0.46476  0.96262  1.0000
  Mg  Mg3       1.0  0.50020  0.48049  0.08440  1.0000
  Mg  Mg4       1.0  0.37128  0.39251  0.87664  1.0000
  C  Sn9       1.0  0.85151  0.89269  0.04710  1.0000
  C   C101      1.0  0.89781  0.92237  0.05614  1.0000
  C  Sn10      1.0  0.92215  0.90241  0.01906  1.0000
  C  Sn11      1.0  0.02461  0.97873  0.97183  1.0000
  C   C102      1.0  0.97832  0.94908  0.96278  1.0000
  C  Sn12      1.0  0.95396  0.96901  0.99988  1.0000
  O  Te9       1.0  0.82785  0.91342  0.08471  1.0000
  O  Te10      1.0  0.96842  0.93282  0.02904  1.0000
  O  Te11      1.0  0.04831  0.95801  0.93422  1.0000
  O  Te12      1.0  0.90771  0.93862  0.98988  1.0000
  Mg  Mg5       1.0  0.11085  0.01445  0.96570  1.0000
  Mg  Mg6       1.0  0.76524  0.85695  0.05308  1.0000
  C  Sn13      1.0  0.02009  0.55161  0.57085  1.0000
  C   C103      1.0  0.04829  0.53459  0.57099  1.0000
  C  Sn14      1.0  0.02655  0.48457  0.52178  1.0000
  C  Sn15      1.0  0.97555  0.45084  0.47126  1.0000
  C   C104      1.0  0.94738  0.46785  0.47111  1.0000
  C  Sn16      1.0  0.96909  0.51788  0.52033  1.0000
  O  Te13      1.0  0.04259  0.60177  0.62053  1.0000
  O  Te14      1.0  0.05551  0.46843  0.52302  1.0000
  O  Te15      1.0  0.95306  0.40064  0.42158  1.0000
  O  Te16      1.0  0.94016  0.53401  0.51907  1.0000
  Mg  Mg7       1.0  0.00796  0.39654  0.44445  1.0000
  Mg  Mg8       1.0  0.98766  0.60589  0.59752  1.0000
  C  Sn17      1.0  0.45892  0.44585  0.42656  1.0000
  C   C105      1.0  0.50530  0.46412  0.43568  1.0000
  C  Sn18      1.0  0.53983  0.51462  0.49039  1.0000
  C  Sn19      1.0  0.52777  0.54755  0.53709  1.0000
  C   C106      1.0  0.48143  0.52927  0.52799  1.0000
  C  Sn20      1.0  0.44686  0.47878  0.47326  1.0000
  O  Te17      1.0  0.42497  0.39523  0.37152  1.0000
  O  Te18      1.0  0.58595  0.53201  0.49838  1.0000
  O  Te19      1.0  0.56177  0.59820  0.59216  1.0000
  O  Te20      1.0  0.40078  0.46139  0.46529  1.0000
  Mg  Mg9       1.0  0.61973  0.60408  0.58148  1.0000
  Mg  Mg10      1.0  0.36698  0.38933  0.38232  1.0000
  C  Sn21      1.0  0.03939  0.00651  0.45860  1.0000
  C   C107      1.0  0.02187  0.03412  0.45217  1.0000
  C  Sn22      1.0  0.98197  0.02309  0.48794  1.0000
  C  Sn23      1.0  0.95912  0.98366  0.53115  1.0000
  C   C108      1.0  0.97665  0.95608  0.53759  1.0000
  C  Sn24      1.0  0.01654  0.96708  0.50181  1.0000
  O  Te21      1.0  0.07933  0.01819  0.42237  1.0000
  O  Te22      1.0  0.96510  0.05121  0.48063  1.0000
  O  Te23      1.0  0.91916  0.97199  0.56738  1.0000
  O  Te24      1.0  0.03341  0.93899  0.50913  1.0000
  Mg  Mg11      1.0  0.90960  0.02102  0.54067  1.0000
  Mg  Mg12      1.0  0.08893  0.96916  0.44922  1.0000
