data_image0
_chemical_formula_structural       C12H6C27N3H19C12H6C15N3H11C2Sn2C2HTe2HMgC2Sn2C2HTe2HMgC2Sn2C2HTe2HMgC2Sn2C2HTe2HMgC2Sn2C2HTe2HMgC2Sn2C2HTe2HMg
_chemical_formula_sum              "C90 H54 N6 Sn12 Te12 Mg6"
_cell_length_a       26.0311
_cell_length_b       25.9219
_cell_length_c       8.04877
_cell_angle_alpha    93.1024
_cell_angle_beta     109.504
_cell_angle_gamma    119.431

_symmetry_space_group_name_H-M    'P1'
_space_group_IT_number       1

loop_
  _space_group_symop_operation_xyz
  'x, y, z'

loop_
  _atom_site_type_symbol
  _atom_site_label
  _atom_site_symmetry_multiplicity
  _atom_site_fract_x
  _atom_site_fract_y
  _atom_site_fract_z
  _atom_site_occupancy
  C   C1        1.0  0.72793  0.36046  0.23215  1.0000
  C   C2        1.0  0.63981  0.36828  0.25417  1.0000
  C   C3        1.0  0.63416  0.27079  0.24327  1.0000
  C   C4        1.0  0.69443  0.29858  0.23413  1.0000
  C   C5        1.0  0.69938  0.39398  0.23999  1.0000
  C   C6        1.0  0.60776  0.30606  0.25446  1.0000
  C   C7        1.0  0.27091  0.64202  0.26080  1.0000
  C   C8        1.0  0.36108  0.63324  0.27163  1.0000
  C   C9        1.0  0.37012  0.73179  0.27022  1.0000
  C   C10       1.0  0.30713  0.70393  0.26191  1.0000
  C   C11       1.0  0.29823  0.60683  0.26177  1.0000
  C   C12       1.0  0.39705  0.69585  0.28053  1.0000
  H   H1        1.0  0.71423  0.27084  0.22273  1.0000
  H   H2        1.0  0.72553  0.44184  0.23907  1.0000
  H   H3        1.0  0.56250  0.28434  0.27037  1.0000
  H   H4        1.0  0.28461  0.73025  0.24938  1.0000
  H   H5        1.0  0.27121  0.55880  0.26127  1.0000
  H   H6        1.0  0.44608  0.71588  0.29026  1.0000
  C   C13       1.0  0.20559  0.61436  0.25757  1.0000
  C   C14       1.0  0.38895  0.59573  0.26704  1.0000
  C   C15       1.0  0.40611  0.79616  0.26148  1.0000
  C   C16       1.0  0.61221  0.40562  0.26995  1.0000
  C   C17       1.0  0.18824  0.65011  0.33400  1.0000
  C   C18       1.0  0.35243  0.53845  0.13819  1.0000
  C   C19       1.0  0.45936  0.81849  0.21487  1.0000
  C   C20       1.0  0.64566  0.46890  0.27965  1.0000
  C   C21       1.0  0.55109  0.37952  0.27524  1.0000
  C   C22       1.0  0.38855  0.83756  0.29993  1.0000
  C   C23       1.0  0.15853  0.55105  0.17781  1.0000
  C   C24       1.0  0.45319  0.61726  0.38696  1.0000
  C   C25       1.0  0.12697  0.62364  0.33395  1.0000
  C   C26       1.0  0.37999  0.50487  0.12453  1.0000
  C   C27       1.0  0.49405  0.87934  0.20953  1.0000
  C   C28       1.0  0.61965  0.50385  0.29302  1.0000
  C   C29       1.0  0.52399  0.41376  0.28475  1.0000
  C   C30       1.0  0.42207  0.89786  0.29063  1.0000
  C   C31       1.0  0.09772  0.52434  0.17937  1.0000
  C   C32       1.0  0.48057  0.58356  0.37537  1.0000
  C   C33       1.0  0.08110  0.56015  0.25934  1.0000
  C   C34       1.0  0.44464  0.52731  0.24135  1.0000
  C   C35       1.0  0.47568  0.91992  0.24591  1.0000
  C   C36       1.0  0.55761  0.47661  0.29181  1.0000
  C   C37       1.0  0.01863  0.53251  0.27052  1.0000
  C   C38       1.0  0.47340  0.49280  0.21880  1.0000
  C   C39       1.0  0.51108  0.98291  0.23292  1.0000
  N   N1        1.0  0.97975  0.47366  0.23152  1.0000
  N   N2        1.0  0.53403  0.51374  0.31072  1.0000
  N   N3        1.0  0.49056  0.01893  0.24029  1.0000
  H   H7        1.0  0.22380  0.69888  0.39834  1.0000
  H   H8        1.0  0.30287  0.52141  0.04436  1.0000
  H   H9        1.0  0.47269  0.78744  0.17669  1.0000
  H   H10       1.0  0.69317  0.49171  0.27684  1.0000
  H   H11       1.0  0.52412  0.33149  0.27431  1.0000
  H   H12       1.0  0.34914  0.82274  0.34279  1.0000
  H   H13       1.0  0.16953  0.52308  0.10887  1.0000
  H   H14       1.0  0.48105  0.66044  0.49198  1.0000
  H   H15       1.0  0.11474  0.65175  0.39704  1.0000
  H   H16       1.0  0.35202  0.46158  0.01955  1.0000
  H   H17       1.0  0.53453  0.89521  0.17055  1.0000
  H   H18       1.0  0.64603  0.55250  0.29956  1.0000
  H   H19       1.0  0.47757  0.39266  0.29447  1.0000
  H   H20       1.0  0.40849  0.92959  0.32122  1.0000
  H   H21       1.0  0.06135  0.47567  0.11608  1.0000
  H   H22       1.0  0.52990  0.59959  0.46870  1.0000
  H   H23       1.0  0.00725  0.56446  0.31931  1.0000
  H   H24       1.0  0.44074  0.44803  0.11576  1.0000
  H   H25       1.0  0.55550  0.99766  0.21216  1.0000
  C   C40       1.0  0.72753  0.35857  0.73747  1.0000
  C   C41       1.0  0.63661  0.36474  0.74117  1.0000
  C   C42       1.0  0.63071  0.26736  0.73002  1.0000
  C   C43       1.0  0.69305  0.29627  0.73432  1.0000
  C   C44       1.0  0.69884  0.39203  0.74435  1.0000
  C   C45       1.0  0.60246  0.30160  0.72929  1.0000
  C   C46       1.0  0.26924  0.63809  0.75403  1.0000
  C   C47       1.0  0.35885  0.62947  0.75840  1.0000
  C   C48       1.0  0.36776  0.72819  0.75988  1.0000
  C   C49       1.0  0.30543  0.70020  0.75694  1.0000
  C   C50       1.0  0.29640  0.60290  0.75180  1.0000
  C   C51       1.0  0.39412  0.69187  0.76437  1.0000
  H   H26       1.0  0.71377  0.26902  0.72859  1.0000
  H   H27       1.0  0.72670  0.44114  0.75935  1.0000
  H   H28       1.0  0.55400  0.27870  0.72568  1.0000
  H   H29       1.0  0.28316  0.72656  0.75059  1.0000
  H   H30       1.0  0.26984  0.55492  0.75222  1.0000
  H   H31       1.0  0.44230  0.71129  0.76805  1.0000
  C   C52       1.0  0.20418  0.61024  0.75317  1.0000
  C   C53       1.0  0.79258  0.38840  0.73723  1.0000
  C   C54       1.0  0.18725  0.64566  0.83323  1.0000
  C   C55       1.0  0.83217  0.36498  0.79977  1.0000
  C   C56       1.0  0.81730  0.44119  0.67374  1.0000
  C   C57       1.0  0.15693  0.54702  0.67163  1.0000
  C   C58       1.0  0.12605  0.61897  0.83379  1.0000
  C   C59       1.0  0.89274  0.39214  0.79555  1.0000
  C   C60       1.0  0.87867  0.46971  0.67368  1.0000
  C   C61       1.0  0.09615  0.52013  0.67371  1.0000
  C   C62       1.0  0.07980  0.55567  0.75628  1.0000
  C   C63       1.0  0.91755  0.44555  0.73506  1.0000
  C   C64       1.0  0.01752  0.52830  0.76874  1.0000
  C   C65       1.0  0.47327  0.48890  0.73317  1.0000
  C   C66       1.0  0.51116  0.98219  0.74537  1.0000
  N   N4        1.0  0.97787  0.46954  0.72821  1.0000
  N   N5        1.0  0.53480  0.51224  0.81358  1.0000
  N   N6        1.0  0.48835  0.01673  0.74056  1.0000
  H   H32       1.0  0.22316  0.69417  0.90066  1.0000
  H   H33       1.0  0.81582  0.32572  0.85671  1.0000
  H   H34       1.0  0.78695  0.45894  0.61751  1.0000
  H   H35       1.0  0.16792  0.51927  0.60165  1.0000
  H   H36       1.0  0.11435  0.64674  0.90092  1.0000
  H   H37       1.0  0.92285  0.37363  0.84367  1.0000
  H   H38       1.0  0.89550  0.50881  0.61619  1.0000
  H   H39       1.0  0.05975  0.47152  0.60952  1.0000
  H   H40       1.0  0.00713  0.56051  0.82146  1.0000
  H   H41       1.0  0.43995  0.44181  0.64280  1.0000
  H   H42       1.0  0.55787  0.99857  0.73711  1.0000
  C   C67       1.0  0.62979  0.16656  0.36527  1.0000
  C   C68       1.0  0.60825  0.19872  0.25940  1.0000
  C  Sn1       1.0  0.54264  0.17052  0.14445  1.0000
  C  Sn2       1.0  0.49788  0.10899  0.13565  1.0000
  C   C69       1.0  0.51991  0.07722  0.24221  1.0000
  C   C70       1.0  0.58567  0.10587  0.35673  1.0000
  H   H43       1.0  0.68066  0.18873  0.45396  1.0000
  O  Te1       1.0  0.52194  0.20331  0.03955  1.0000
  O  Te2       1.0  0.43203  0.07970  0.02197  1.0000
  H   H44       1.0  0.60233  0.08097  0.43877  1.0000
  Mg  Mg1       1.0  0.57429  0.23282  0.90538  1.0000
  C   C71       1.0  0.51304  0.14713  0.59799  1.0000
  C   C72       1.0  0.57747  0.19384  0.70634  1.0000
  C  Sn3       1.0  0.61832  0.18115  0.83455  1.0000
  C  Sn4       1.0  0.59409  0.12052  0.85430  1.0000
  C   C73       1.0  0.52957  0.07410  0.74516  1.0000
  C   C74       1.0  0.48910  0.08731  0.61733  1.0000
  H   H45       1.0  0.48173  0.15734  0.49901  1.0000
  O  Te3       1.0  0.68256  0.22837  0.94174  1.0000
  O  Te4       1.0  0.63387  0.10655  0.98133  1.0000
  H   H46       1.0  0.43923  0.05113  0.53338  1.0000
  Mg  Mg2       1.0  0.57092  0.09722  0.09588  1.0000
  C   C75       1.0  0.47500  0.83083  0.72003  1.0000
  C   C76       1.0  0.42010  0.79943  0.75646  1.0000
  C  Sn5       1.0  0.39014  0.82896  0.78739  1.0000
  C  Sn6       1.0  0.41571  0.89107  0.78162  1.0000
  C   C77       1.0  0.47062  0.92207  0.74494  1.0000
  C   C78       1.0  0.50023  0.89209  0.71424  1.0000
  H   H47       1.0  0.49789  0.80762  0.69617  1.0000
  O  Te5       1.0  0.33535  0.79692  0.82367  1.0000
  O  Te6       1.0  0.38671  0.92169  0.81197  1.0000
  H   H48       1.0  0.54271  0.91640  0.68592  1.0000
  Mg  Mg3       1.0  0.31299  0.85849  0.85607  1.0000
  C   C79       1.0  0.36524  0.50175  0.60887  1.0000
  C   C80       1.0  0.42856  0.51773  0.71131  1.0000
  C  Sn7       1.0  0.47212  0.57242  0.85061  1.0000
  C  Sn8       1.0  0.45176  0.61175  0.88777  1.0000
  C   C81       1.0  0.38829  0.59533  0.78459  1.0000
  C   C82       1.0  0.34511  0.54050  0.64547  1.0000
  H   H49       1.0  0.33181  0.45932  0.50129  1.0000
  O  Te7       1.0  0.53521  0.58770  0.95160  1.0000
  O  Te8       1.0  0.34735  0.57736  0.02625  1.0000
  H   H50       1.0  0.29607  0.52812  0.56626  1.0000
  Mg  Mg4       1.0  0.42839  0.57814  0.12621  1.0000
  C   C83       1.0  0.83125  0.45718  0.16233  1.0000
  C   C84       1.0  0.79688  0.40213  0.20450  1.0000
  C  Sn9       1.0  0.82636  0.37044  0.27278  1.0000
  C  Sn10      1.0  0.89147  0.39445  0.29922  1.0000
  C   C85       1.0  0.92545  0.44959  0.25673  1.0000
  C   C86       1.0  0.89547  0.48091  0.18843  1.0000
  H   H51       1.0  0.80807  0.48144  0.10958  1.0000
  O  Te9       1.0  0.79132  0.31549  0.31415  1.0000
  O  Te10      1.0  0.92212  0.36374  0.36733  1.0000
  H   H52       1.0  0.92211  0.52355  0.15590  1.0000
  Mg  Mg5       1.0  0.85419  0.29048  0.40347  1.0000
  C   C87       1.0  0.63275  0.47368  0.71184  1.0000
  C   C88       1.0  0.61820  0.41789  0.75424  1.0000
  C  Sn11      1.0  0.56991  0.38836  0.81767  1.0000
  C  Sn12      1.0  0.53563  0.41528  0.83885  1.0000
  C   C89       1.0  0.55052  0.47109  0.79593  1.0000
  C   C90       1.0  0.59895  0.50026  0.73262  1.0000
  H   H53       1.0  0.67020  0.49624  0.66276  1.0000
  O  Te11      1.0  0.55599  0.33265  0.85948  1.0000
  O  Te12      1.0  0.48712  0.38673  0.90193  1.0000
  H   H54       1.0  0.61018  0.54344  0.69968  1.0000
  Mg  Mg6       1.0  0.48577  0.31138  0.94088  1.0000
