data_image0
_chemical_formula_structural       C42H12C12H8C12H8N6C6H6C42H12C18H12C12H8N6C6H6SnCSn2CSnTe4Mg2SnCSn2CSnTe4Mg2SnCSn2CSnTe4Mg2SnCSn2CSnTe4Mg2SnCSn2CSnTe4Mg2SnCSn2CSnTe4Mg2SnCSn2CSnTe4Mg2SnCSn2CSnTe4Mg2SnCSn2CSnTe4Mg2
_chemical_formula_sum              "C168 H72 N12 Sn36 Te36 Mg18"
_cell_length_a       30.1318
_cell_length_b       30.0815
_cell_length_c       8.03603
_cell_angle_alpha    118.036
_cell_angle_beta     77.2101
_cell_angle_gamma    120.012

_symmetry_space_group_name_H-M    'P1'
_space_group_IT_number       1

loop_
  _space_group_symop_operation_xyz
  'x, y, z'

loop_
  _atom_site_type_symbol
  _atom_site_label
  _atom_site_symmetry_multiplicity
  _atom_site_fract_x
  _atom_site_fract_y
  _atom_site_fract_z
  _atom_site_occupancy
  C   C1        1.0  0.04675  0.00023  0.01562  1.0000
  C   C2        1.0  0.99990  0.04459  0.99079  1.0000
  C   C3        1.0  0.95233  0.95275  0.01151  1.0000
  C   C4        1.0  0.95257  0.99808  0.99555  1.0000
  C   C5        1.0  0.99944  0.95392  0.02210  1.0000
  C   C6        1.0  0.04702  0.04575  0.00133  1.0000
  C   C7        1.0  0.09435  0.00089  0.02290  1.0000
  C   C8        1.0  0.00018  0.09014  0.97305  1.0000
  C   C9        1.0  0.90450  0.90566  0.01593  1.0000
  C   C10       1.0  0.90506  0.99706  0.98435  1.0000
  C   C11       1.0  0.99930  0.90823  0.03833  1.0000
  C   C12       1.0  0.09489  0.09294  0.99754  1.0000
  C   C13       1.0  0.04618  0.90815  0.04420  1.0000
  C   C14       1.0  0.09559  0.13901  0.98539  1.0000
  C   C15       1.0  0.85744  0.95063  0.98897  1.0000
  C   C16       1.0  0.95343  0.08957  0.96062  1.0000
  C   C17       1.0  0.90380  0.85990  0.03072  1.0000
  C   C18       1.0  0.14196  0.04727  0.01795  1.0000
  C   C19       1.0  0.09456  0.95491  0.03290  1.0000
  C   C20       1.0  0.04738  0.13671  0.96744  1.0000
  C   C21       1.0  0.85719  0.90435  0.00618  1.0000
  C   C22       1.0  0.90495  0.04257  0.97023  1.0000
  C   C23       1.0  0.95213  0.86182  0.04587  1.0000
  C   C24       1.0  0.14226  0.09408  0.00487  1.0000
  C   C25       1.0  0.04485  0.86232  0.05473  1.0000
  C   C26       1.0  0.14273  0.18555  0.98969  1.0000
  C   C27       1.0  0.81166  0.95062  0.97836  1.0000
  C   C28       1.0  0.95496  0.13514  0.94684  1.0000
  C   C29       1.0  0.85655  0.81402  0.03110  1.0000
  C   C30       1.0  0.18776  0.04656  0.02284  1.0000
  C   C31       1.0  0.18820  0.00040  0.02281  1.0000
  C   C32       1.0  0.00119  0.18131  0.94291  1.0000
  C   C33       1.0  0.81001  0.81305  0.02558  1.0000
  C   C34       1.0  0.81118  0.99586  0.97139  1.0000
  C   C35       1.0  0.99878  0.81626  0.06017  1.0000
  C   C36       1.0  0.18929  0.18613  0.99122  1.0000
  C   C37       1.0  0.14142  0.95516  0.02849  1.0000
  C   C38       1.0  0.04666  0.17985  0.94636  1.0000
  C   C39       1.0  0.81122  0.85865  0.01495  1.0000
  C   C40       1.0  0.85801  0.04134  0.96730  1.0000
  C   C41       1.0  0.95306  0.81763  0.05956  1.0000
  C   C42       1.0  0.18821  0.13975  0.99561  1.0000
  H   H1        1.0  0.14384  0.22136  0.98345  1.0000
  H   H2        1.0  0.77509  0.91594  0.98376  1.0000
  H   H3        1.0  0.08048  0.86238  0.06105  1.0000
  H   H4        1.0  0.85519  0.77931  0.04595  1.0000
  H   H5        1.0  0.22431  0.08143  0.01833  1.0000
  H   H6        1.0  0.91947  0.13568  0.94283  1.0000
  H   H7        1.0  0.22460  0.14066  0.99650  1.0000
  H   H8        1.0  0.85718  0.07549  0.95580  1.0000
  H   H9        1.0  0.91720  0.78163  0.06121  1.0000
  H   H10       1.0  0.77484  0.85700  0.00866  1.0000
  H   H11       1.0  0.14245  0.92051  0.03555  1.0000
  H   H12       1.0  0.08253  0.21351  0.93075  1.0000
  C   C43       1.0  0.23664  0.99779  0.00763  1.0000
  C   C44       1.0  0.76262  0.99744  0.97847  1.0000
  C   C45       1.0  0.32948  0.99086  0.96279  1.0000
  C   C46       1.0  0.66959  0.00296  0.01285  1.0000
  C   C47       1.0  0.28528  0.94455  0.85544  1.0000
  C   C48       1.0  0.71321  0.04994  0.12191  1.0000
  C   C49       1.0  0.23964  0.94763  0.87980  1.0000
  C   C50       1.0  0.75900  0.04751  0.10203  1.0000
  C   C51       1.0  0.28113  0.04463  0.11121  1.0000
  C   C52       1.0  0.71871  0.95005  0.87285  1.0000
  C   C53       1.0  0.32670  0.04133  0.09113  1.0000
  C   C54       1.0  0.67300  0.95268  0.88770  1.0000
  H   H13       1.0  0.27955  0.08387  0.21087  1.0000
  H   H14       1.0  0.72061  0.91072  0.77736  1.0000
  H   H15       1.0  0.36038  0.07817  0.17444  1.0000
  H   H16       1.0  0.63959  0.91548  0.80386  1.0000
  H   H17       1.0  0.28802  0.90626  0.75346  1.0000
  H   H18       1.0  0.70982  0.08800  0.22181  1.0000
  H   H19       1.0  0.20595  0.91166  0.79424  1.0000
  H   H20       1.0  0.79227  0.08389  0.18879  1.0000
  C   C55       1.0  0.00927  0.54564  0.96436  1.0000
  C   C56       1.0  0.45211  0.45987  0.05131  1.0000
  C   C57       1.0  0.99374  0.44629  0.97336  1.0000
  C   C58       1.0  0.54792  0.54372  0.00564  1.0000
  C   C59       1.0  0.96062  0.50881  0.00446  1.0000
  C   C60       1.0  0.47996  0.44632  0.88572  1.0000
  C   C61       1.0  0.04218  0.48255  0.92956  1.0000
  C   C62       1.0  0.51997  0.55737  0.17087  1.0000
  C   C63       1.0  0.95317  0.46002  0.00866  1.0000
  C   C64       1.0  0.52714  0.48765  0.86365  1.0000
  C   C65       1.0  0.04970  0.53148  0.92593  1.0000
  C   C66       1.0  0.47280  0.51599  0.19315  1.0000
  H   H21       1.0  0.92990  0.52038  0.03407  1.0000
  H   H22       1.0  0.46346  0.40305  0.77662  1.0000
  H   H23       1.0  0.07299  0.47107  0.89915  1.0000
  H   H24       1.0  0.53642  0.60060  0.28026  1.0000
  H   H25       1.0  0.91580  0.43196  0.04259  1.0000
  H   H26       1.0  0.54840  0.47701  0.73484  1.0000
  H   H27       1.0  0.08703  0.55955  0.89160  1.0000
  H   H28       1.0  0.45167  0.52655  0.32240  1.0000
  N   N1        1.0  0.38179  0.36592  0.94705  1.0000
  N   N2        1.0  0.62529  0.00979  0.04496  1.0000
  N   N3        1.0  0.98172  0.61172  0.00060  1.0000
  N   N4        1.0  0.61885  0.63761  0.10498  1.0000
  N   N5        1.0  0.37319  0.98264  0.92635  1.0000
  N   N6        1.0  0.02115  0.38238  0.96056  1.0000
  C   C67       1.0  0.40309  0.41665  0.07949  1.0000
  C   C68       1.0  0.59103  0.98247  0.91373  1.0000
  C   C69       1.0  0.01850  0.59849  0.96825  1.0000
  C   C70       1.0  0.59720  0.58627  0.97616  1.0000
  C   C71       1.0  0.40888  0.01041  0.05265  1.0000
  C   C72       1.0  0.98472  0.39547  0.98457  1.0000
  H   H29       1.0  0.38630  0.42939  0.22002  1.0000
  H   H30       1.0  0.59547  0.95373  0.76982  1.0000
  H   H31       1.0  0.05846  0.62648  0.94824  1.0000
  H   H32       1.0  0.61403  0.57227  0.83646  1.0000
  H   H33       1.0  0.40660  0.04108  0.19584  1.0000
  H   H34       1.0  0.94552  0.36986  0.01926  1.0000
  C   C73       1.0  0.04761  0.00275  0.51395  1.0000
  C   C74       1.0  0.00142  0.04808  0.49042  1.0000
  C   C75       1.0  0.95310  0.95592  0.50865  1.0000
  C   C76       1.0  0.95382  0.00177  0.49473  1.0000
  C   C77       1.0  0.99999  0.95643  0.51829  1.0000
  C   C78       1.0  0.04830  0.04862  0.50042  1.0000
  C   C79       1.0  0.09493  0.00281  0.52160  1.0000
  C   C80       1.0  0.00216  0.09409  0.47427  1.0000
  C   C81       1.0  0.90497  0.90912  0.51329  1.0000
  C   C82       1.0  0.90646  0.00155  0.48634  1.0000
  C   C83       1.0  0.99929  0.91046  0.53468  1.0000
  C   C84       1.0  0.09640  0.09569  0.49752  1.0000
  C   C85       1.0  0.04583  0.91001  0.54274  1.0000
  C   C86       1.0  0.09760  0.14227  0.48686  1.0000
  C   C87       1.0  0.85857  0.95537  0.49103  1.0000
  C   C88       1.0  0.95557  0.09399  0.46254  1.0000
  C   C89       1.0  0.90382  0.86322  0.52846  1.0000
  C   C90       1.0  0.14281  0.04893  0.51670  1.0000
  C   C91       1.0  0.09453  0.95636  0.53038  1.0000
  C   C92       1.0  0.04958  0.14068  0.47009  1.0000
  C   C93       1.0  0.85785  0.90846  0.50537  1.0000
  C   C94       1.0  0.90683  0.04777  0.47564  1.0000
  C   C95       1.0  0.95182  0.86453  0.54323  1.0000
  C   C96       1.0  0.14347  0.09620  0.50532  1.0000
  C   C97       1.0  0.04388  0.86456  0.55839  1.0000
  C   C98       1.0  0.14506  0.18863  0.49178  1.0000
  C   C99       1.0  0.81295  0.95617  0.48382  1.0000
  C   C100      1.0  0.95752  0.13919  0.44514  1.0000
  C   C101      1.0  0.85640  0.81791  0.53115  1.0000
  C   C102      1.0  0.18843  0.04756  0.52011  1.0000
  C   C103      1.0  0.18820  0.00083  0.51829  1.0000
  C   C104      1.0  0.00391  0.18573  0.44460  1.0000
  C   C105      1.0  0.81012  0.81753  0.52677  1.0000
  C   C106      1.0  0.81303  0.00240  0.48248  1.0000
  C   C107      1.0  0.99739  0.81875  0.56336  1.0000
  C   C108      1.0  0.19124  0.18856  0.49433  1.0000
  C   C109      1.0  0.14116  0.95580  0.52345  1.0000
  C   C110      1.0  0.04922  0.18476  0.45389  1.0000
  C   C111      1.0  0.81161  0.86324  0.51607  1.0000
  C   C112      1.0  0.86008  0.04783  0.47933  1.0000
  C   C113      1.0  0.95208  0.82047  0.56001  1.0000
  C   C114      1.0  0.18968  0.14196  0.49856  1.0000
  H   H35       1.0  0.14676  0.22458  0.48439  1.0000
  H   H36       1.0  0.77616  0.92127  0.48679  1.0000
  H   H37       1.0  0.07928  0.86487  0.56976  1.0000
  H   H38       1.0  0.85466  0.78338  0.54842  1.0000
  H   H39       1.0  0.22514  0.08210  0.51449  1.0000
  H   H40       1.0  0.92206  0.13908  0.43615  1.0000
  H   H41       1.0  0.22593  0.14292  0.50216  1.0000
  H   H42       1.0  0.85942  0.08271  0.47252  1.0000
  H   H43       1.0  0.91600  0.78517  0.56489  1.0000
  H   H44       1.0  0.77537  0.86230  0.51271  1.0000
  H   H45       1.0  0.14172  0.92034  0.52607  1.0000
  H   H46       1.0  0.08533  0.21952  0.44634  1.0000
  C   C115      1.0  0.00577  0.23606  0.44750  1.0000
  C   C116      1.0  0.76084  0.77050  0.53835  1.0000
  C   C117      1.0  0.76439  0.00408  0.49026  1.0000
  C   C118      1.0  0.01057  0.33511  0.46552  1.0000
  C   C119      1.0  0.66649  0.67994  0.56362  1.0000
  C   C120      1.0  0.67105  0.00817  0.51445  1.0000
  C   C121      1.0  0.05153  0.33761  0.53184  1.0000
  C   C122      1.0  0.67660  0.73685  0.67502  1.0000
  C   C123      1.0  0.71201  0.05284  0.64140  1.0000
  C   C124      1.0  0.04892  0.28944  0.52504  1.0000
  C   C125      1.0  0.72251  0.78114  0.66038  1.0000
  C   C126      1.0  0.75804  0.05123  0.62786  1.0000
  C   C127      1.0  0.75083  0.71360  0.42775  1.0000
  C   C128      1.0  0.96475  0.23377  0.38170  1.0000
  C   C129      1.0  0.72300  0.95871  0.36630  1.0000
  C   C130      1.0  0.70450  0.66916  0.43811  1.0000
  C   C131      1.0  0.96685  0.28210  0.39005  1.0000
  C   C132      1.0  0.67733  0.96079  0.37618  1.0000
  H   H47       1.0  0.93147  0.19296  0.31664  1.0000
  H   H48       1.0  0.77937  0.70443  0.32789  1.0000
  H   H49       1.0  0.72729  0.92183  0.25899  1.0000
  H   H50       1.0  0.93574  0.27836  0.32850  1.0000
  H   H51       1.0  0.69764  0.62585  0.34522  1.0000
  H   H52       1.0  0.64627  0.92529  0.27694  1.0000
  H   H53       1.0  0.64728  0.74478  0.77287  1.0000
  H   H54       1.0  0.08477  0.37870  0.59300  1.0000
  H   H55       1.0  0.70620  0.08834  0.75116  1.0000
  H   H56       1.0  0.72971  0.82488  0.74743  1.0000
  H   H57       1.0  0.08025  0.29370  0.58683  1.0000
  H   H58       1.0  0.78907  0.08579  0.72884  1.0000
  C   C133      1.0  0.00386  0.54724  0.47719  1.0000
  C   C134      1.0  0.45334  0.46099  0.53439  1.0000
  C   C135      1.0  0.98867  0.44687  0.47734  1.0000
  C   C136      1.0  0.55355  0.54334  0.51523  1.0000
  C   C137      1.0  0.95473  0.50855  0.50686  1.0000
  C   C138      1.0  0.48878  0.44447  0.40951  1.0000
  C   C139      1.0  0.03774  0.48559  0.44763  1.0000
  C   C140      1.0  0.51810  0.55980  0.64040  1.0000
  C   C141      1.0  0.94738  0.45915  0.50624  1.0000
  C   C142      1.0  0.53811  0.48509  0.40047  1.0000
  C   C143      1.0  0.04514  0.53493  0.44776  1.0000
  C   C144      1.0  0.46879  0.51921  0.64914  1.0000
  H   H59       1.0  0.92347  0.51910  0.53243  1.0000
  H   H60       1.0  0.47618  0.39947  0.32079  1.0000
  H   H61       1.0  0.06918  0.47557  0.42567  1.0000
  H   H62       1.0  0.53047  0.60479  0.72841  1.0000
  H   H63       1.0  0.90956  0.42955  0.53152  1.0000
  H   H64       1.0  0.56526  0.47226  0.30178  1.0000
  H   H65       1.0  0.08310  0.56466  0.42369  1.0000
  H   H66       1.0  0.44145  0.53192  0.74676  1.0000
  N   N7        1.0  0.38727  0.36563  0.45952  1.0000
  N   N8        1.0  0.62668  0.01473  0.54237  1.0000
  N   N9        1.0  0.97586  0.61210  0.50303  1.0000
  N   N10       1.0  0.61825  0.63901  0.58599  1.0000
  N   N11       1.0  0.37239  0.98241  0.43605  1.0000
  N   N12       1.0  0.01808  0.38530  0.46967  1.0000
  C   C145      1.0  0.40160  0.41949  0.55009  1.0000
  C   C146      1.0  0.59029  0.98344  0.41657  1.0000
  C   C147      1.0  0.01298  0.60025  0.48277  1.0000
  C   C148      1.0  0.60483  0.58530  0.49720  1.0000
  C   C149      1.0  0.40915  0.01277  0.55989  1.0000
  C   C150      1.0  0.98023  0.39528  0.48127  1.0000
  H   H67       1.0  0.37626  0.43732  0.64351  1.0000
  H   H68       1.0  0.59168  0.95024  0.27848  1.0000
  H   H69       1.0  0.05331  0.62986  0.47445  1.0000
  H   H70       1.0  0.63027  0.56803  0.40148  1.0000
  H   H71       1.0  0.40866  0.04663  0.69754  1.0000
  H   H72       1.0  0.94036  0.36652  0.49897  1.0000
  C  Sn1       1.0  0.03135  0.73115  0.90535  1.0000
  C   C151      1.0  0.99715  0.75382  0.99300  1.0000
  C  Sn2       1.0  0.95522  0.60581  0.11401  1.0000
  C  Sn3       1.0  0.95231  0.56228  0.14824  1.0000
  C   C152      1.0  0.98650  0.53964  0.06066  1.0000
  C  Sn4       1.0  0.02844  0.68761  0.93959  1.0000
  O  Te1       1.0  0.06809  0.75179  0.78492  1.0000
  O  Te2       1.0  0.92144  0.62912  0.19995  1.0000
  O  Te3       1.0  0.91553  0.54165  0.26879  1.0000
  O  Te4       1.0  0.06221  0.66434  0.85370  1.0000
  Mg  Mg1       1.0  0.87810  0.58692  0.35267  1.0000
  Mg  Mg2       1.0  0.10557  0.70652  0.70104  1.0000
  C  Sn5       1.0  0.79419  0.05241  0.60268  1.0000
  C   C153      1.0  0.74972  0.01302  0.49062  1.0000
  C  Sn6       1.0  0.74201  0.95776  0.37098  1.0000
  C  Sn7       1.0  0.77951  0.94153  0.36325  1.0000
  C   C154      1.0  0.82394  0.98090  0.47528  1.0000
  C  Sn8       1.0  0.83169  0.03617  0.59495  1.0000
  O  Te5       1.0  0.30175  0.10741  0.72127  1.0000
  O  Te6       1.0  0.69726  0.91914  0.26024  1.0000
  O  Te7       1.0  0.77257  0.88647  0.24453  1.0000
  O  Te8       1.0  0.87640  0.07478  0.70566  1.0000
  Mg  Mg3       1.0  0.70532  0.84916  0.12107  1.0000
  Mg  Mg4       1.0  0.36902  0.14476  0.84495  1.0000
  C  Sn9       1.0  0.29491  0.23089  0.90288  1.0000
  C   C155      1.0  0.24702  0.10581  0.00710  1.0000
  C  Sn10      1.0  0.24252  0.15575  0.08431  1.0000
  C  Sn11      1.0  0.28180  0.20377  0.05668  1.0000
  C   C156      1.0  0.32966  0.32884  0.95250  1.0000
  C  Sn12      1.0  0.33420  0.27891  0.87526  1.0000
  O  Te9       1.0  0.29861  0.18052  0.82698  1.0000
  O  Te10      1.0  0.19916  0.15766  0.18802  1.0000
  O  Te11      1.0  0.27807  0.25416  0.13270  1.0000
  O  Te12      1.0  0.37752  0.27698  0.77158  1.0000
  Mg  Mg5       1.0  0.21167  0.23587  0.26317  1.0000
  Mg  Mg6       1.0  0.36504  0.19879  0.69628  1.0000
  C  Sn13      1.0  0.95635  0.27074  0.93181  1.0000
  C   C157      1.0  0.99734  0.32546  0.99962  1.0000
  C  Sn14      1.0  0.04040  0.20633  0.03338  1.0000
  C  Sn15      1.0  0.05242  0.28754  0.99852  1.0000
  C   C158      1.0  0.01144  0.23286  0.93071  1.0000
  C  Sn16      1.0  0.96348  0.22394  0.89695  1.0000
  O  Te13      1.0  0.90875  0.26286  0.89906  1.0000
  O  Te14      1.0  0.08080  0.26143  0.10124  1.0000
  O  Te15      1.0  0.09518  0.16746  0.03134  1.0000
  O  Te16      1.0  0.92310  0.16888  0.82909  1.0000
  Mg  Mg7       1.0  0.13840  0.25050  0.12384  1.0000
  Mg  Mg8       1.0  0.86549  0.17975  0.80636  1.0000
  C  Sn17      1.0  0.67855  0.74522  0.13664  1.0000
  C   C159      1.0  0.66388  0.68717  0.05391  1.0000
  C  Sn18      1.0  0.70520  0.79560  0.97048  1.0000
  C  Sn19      1.0  0.75738  0.83486  0.96982  1.0000
  C   C160      1.0  0.76714  0.76486  0.05254  1.0000
  C  Sn20      1.0  0.73073  0.78447  0.13598  1.0000
  O  Te17      1.0  0.64147  0.76384  0.21924  1.0000
  O  Te18      1.0  0.68962  0.73737  0.88860  1.0000
  O  Te19      1.0  0.79446  0.81619  0.88712  1.0000
  O  Te20      1.0  0.74629  0.84266  0.21785  1.0000
  Mg  Mg9       1.0  0.75437  0.73277  0.79371  1.0000
  Mg  Mg10      1.0  0.68158  0.84732  0.31286  1.0000
  C  Sn21      1.0  0.02807  0.03384  0.66013  1.0000
  C   C161      1.0  0.03717  0.99095  0.50847  1.0000
  C  Sn22      1.0  0.00524  0.95584  0.34832  1.0000
  C  Sn23      1.0  0.96336  0.96377  0.33951  1.0000
  C   C162      1.0  0.95428  0.00665  0.49109  1.0000
  C  Sn24      1.0  0.98618  0.04178  0.65132  1.0000
  O  Te21      1.0  0.06048  0.06846  0.81882  1.0000
  O  Te22      1.0  0.01510  0.91323  0.19850  1.0000
  O  Te23      1.0  0.93093  0.92912  0.18064  1.0000
  O  Te24      1.0  0.97635  0.08437  0.80106  1.0000
  Mg  Mg11      1.0  0.96009  0.87696  0.01280  1.0000
  Mg  Mg12      1.0  0.03134  0.12068  0.98677  1.0000
  C  Sn25      1.0  0.49892  0.96070  0.78603  1.0000
  C   C163      1.0  0.54231  0.99265  0.90290  1.0000
  C  Sn26      1.0  0.53571  0.89995  0.09251  1.0000
  C  Sn27      1.0  0.48966  0.90339  0.16691  1.0000
  C   C164      1.0  0.44630  0.87145  0.05008  1.0000
  C  Sn28      1.0  0.45287  0.96414  0.86043  1.0000
  O  Te25      1.0  0.50150  0.92568  0.59692  1.0000
  O  Te26      1.0  0.57959  0.93150  0.20656  1.0000
  O  Te27      1.0  0.48710  0.93846  0.35619  1.0000
  O  Te28      1.0  0.40902  0.93260  0.74642  1.0000
  Mg  Mg13      1.0  0.55697  0.97309  0.45510  1.0000
  Mg  Mg14      1.0  0.43158  0.89097  0.49790  1.0000
  C  Sn29      1.0  0.31114  0.25707  0.30783  1.0000
  C   C165      1.0  0.32927  0.31524  0.42041  1.0000
  C  Sn30      1.0  0.30453  0.33483  0.58700  1.0000
  C  Sn31      1.0  0.26077  0.29546  0.64231  1.0000
  C   C166      1.0  0.24267  0.23734  0.52978  1.0000
  C  Sn32      1.0  0.26739  0.21771  0.36313  1.0000
  O  Te29      1.0  0.33648  0.23844  0.14186  1.0000
  O  Te30      1.0  0.32336  0.39318  0.69720  1.0000
  O  Te31      1.0  0.23544  0.31414  0.80842  1.0000
  O  Te32      1.0  0.24859  0.15939  0.25299  1.0000
  Mg  Mg15      1.0  0.27567  0.39775  0.91107  1.0000
  Mg  Mg16      1.0  0.29626  0.15478  0.03915  1.0000
  C  Sn33      1.0  0.04008  0.71954  0.49648  1.0000
  C   C167      1.0  0.00008  0.67916  0.55356  1.0000
  C  Sn34      1.0  0.95296  0.68000  0.60312  1.0000
  C  Sn35      1.0  0.94565  0.72205  0.59535  1.0000
  C   C168      1.0  0.98563  0.76240  0.53827  1.0000
  C  Sn36      1.0  0.03278  0.76159  0.48871  1.0000
  O  Te33      1.0  0.08687  0.71789  0.44756  1.0000
  O  Te34      1.0  0.91354  0.63920  0.65980  1.0000
  O  Te35      1.0  0.89882  0.72367  0.64434  1.0000
  O  Te36      1.0  0.07217  0.80236  0.43203  1.0000
  Mg  Mg17      1.0  0.85679  0.65900  0.71248  1.0000
  Mg  Mg18      1.0  0.12893  0.78258  0.37922  1.0000
