data_image0
_chemical_formula_structural       C12H6C2N4C2H4C8H4C6H4C12H6C2N4C2H4C8H4C6H4C2Sn2C2HTe2HMgC2Sn2C2HTe2HMgC2Sn2C2HTe2HMgC2Sn2C2HTe2HMg
_chemical_formula_sum              "C76 H44 N8 Sn8 Te8 Mg4"
_cell_length_a       15.461
_cell_length_b       15.916
_cell_length_c       9.48908
_cell_angle_alpha    91.9009
_cell_angle_beta     88.5841
_cell_angle_gamma    87.2251

_symmetry_space_group_name_H-M    'P1'
_space_group_IT_number       1

loop_
  _space_group_symop_operation_xyz
  'x, y, z'

loop_
  _atom_site_type_symbol
  _atom_site_label
  _atom_site_symmetry_multiplicity
  _atom_site_fract_x
  _atom_site_fract_y
  _atom_site_fract_z
  _atom_site_occupancy
  C   C1        1.0  0.27164  0.47932  0.03050  1.0000
  C   C2        1.0  0.72811  0.52500  0.04482  1.0000
  C   C3        1.0  0.32629  0.40799  0.05225  1.0000
  C   C4        1.0  0.67138  0.59662  0.06071  1.0000
  C   C5        1.0  0.41498  0.41806  0.07097  1.0000
  C   C6        1.0  0.58199  0.58670  0.07389  1.0000
  C   C7        1.0  0.45155  0.49731  0.06064  1.0000
  C   C8        1.0  0.54676  0.50654  0.06535  1.0000
  C   C9        1.0  0.39554  0.56699  0.03777  1.0000
  C   C10       1.0  0.60484  0.43639  0.05157  1.0000
  C   C11       1.0  0.30578  0.55893  0.02550  1.0000
  C   C12       1.0  0.69504  0.44485  0.04227  1.0000
  H   H1        1.0  0.20291  0.47094  0.01651  1.0000
  H   H2        1.0  0.79724  0.53372  0.03250  1.0000
  H   H3        1.0  0.45605  0.36256  0.09149  1.0000
  H   H4        1.0  0.53966  0.64320  0.08677  1.0000
  H   H5        1.0  0.41930  0.62966  0.02635  1.0000
  H   H6        1.0  0.58260  0.37272  0.04365  1.0000
  C   C13       1.0  0.24765  0.63295  0.00770  1.0000
  C   C14       1.0  0.75416  0.37031  0.02593  1.0000
  N   N1        1.0  0.27558  0.70756  0.99445  1.0000
  N   N2        1.0  0.72627  0.29520  0.02110  1.0000
  N   N3        1.0  0.21425  0.31182  0.00986  1.0000
  N   N4        1.0  0.78286  0.69179  0.01355  1.0000
  C   C15       1.0  0.29256  0.32344  0.04761  1.0000
  C   C16       1.0  0.70415  0.68134  0.05502  1.0000
  H   H7        1.0  0.17810  0.62120  0.00709  1.0000
  H   H8        1.0  0.82363  0.38179  0.01564  1.0000
  H   H9        1.0  0.33869  0.27124  0.07094  1.0000
  H   H10       1.0  0.65752  0.73421  0.08226  1.0000
  C   C17       1.0  0.95545  0.00110  0.99324  1.0000
  C   C18       1.0  0.04492  0.99995  0.98951  1.0000
  C   C19       1.0  0.89914  0.07957  0.00157  1.0000
  C   C20       1.0  0.82307  0.08428  0.92246  1.0000
  C   C21       1.0  0.76708  0.15539  0.92919  1.0000
  C   C22       1.0  0.78545  0.22579  0.01494  1.0000
  C   C23       1.0  0.86053  0.22142  0.09616  1.0000
  C   C24       1.0  0.91549  0.14962  0.08938  1.0000
  H   H11       1.0  0.97301  0.14760  0.15240  1.0000
  H   H12       1.0  0.80841  0.03109  0.85379  1.0000
  H   H13       1.0  0.70928  0.15872  0.86629  1.0000
  H   H14       1.0  0.87342  0.27337  0.16877  1.0000
  C   C25       1.0  0.10142  0.92187  0.99113  1.0000
  C   C26       1.0  0.17835  0.91554  0.90737  1.0000
  C   C27       1.0  0.23476  0.84485  0.90833  1.0000
  C   C28       1.0  0.21588  0.77658  0.99270  1.0000
  C   C29       1.0  0.14014  0.78307  0.07915  1.0000
  C   C30       1.0  0.08458  0.85426  0.07785  1.0000
  H   H15       1.0  0.02738  0.85896  0.14669  1.0000
  H   H16       1.0  0.19388  0.96745  0.84100  1.0000
  H   H17       1.0  0.29340  0.84049  0.84227  1.0000
  H   H18       1.0  0.12777  0.73375  0.15272  1.0000
  C   C31       1.0  0.27020  0.47697  0.51476  1.0000
  C   C32       1.0  0.72817  0.52089  0.53348  1.0000
  C   C33       1.0  0.32592  0.40544  0.52888  1.0000
  C   C34       1.0  0.67184  0.59300  0.53821  1.0000
  C   C35       1.0  0.41513  0.41509  0.54009  1.0000
  C   C36       1.0  0.58211  0.58392  0.54354  1.0000
  C   C37       1.0  0.45117  0.49470  0.53275  1.0000
  C   C38       1.0  0.54642  0.50391  0.53720  1.0000
  C   C39       1.0  0.39419  0.56456  0.51674  1.0000
  C   C40       1.0  0.60417  0.43331  0.53064  1.0000
  C   C41       1.0  0.30411  0.55656  0.50929  1.0000
  C   C42       1.0  0.69450  0.44104  0.53065  1.0000
  H   H19       1.0  0.20101  0.46877  0.50647  1.0000
  H   H20       1.0  0.79767  0.52907  0.53125  1.0000
  H   H21       1.0  0.45664  0.35884  0.55310  1.0000
  H   H22       1.0  0.54003  0.64079  0.55072  1.0000
  H   H23       1.0  0.41743  0.62758  0.50834  1.0000
  H   H24       1.0  0.58188  0.36965  0.52312  1.0000
  C   C43       1.0  0.24550  0.63077  0.49640  1.0000
  C   C44       1.0  0.75343  0.36611  0.52379  1.0000
  N   N5        1.0  0.27380  0.70506  0.48208  1.0000
  N   N6        1.0  0.72512  0.29116  0.51665  1.0000
  N   N7        1.0  0.21216  0.31021  0.49877  1.0000
  N   N8        1.0  0.78694  0.68556  0.50031  1.0000
  C   C45       1.0  0.29236  0.32094  0.52544  1.0000
  C   C46       1.0  0.70611  0.67697  0.53111  1.0000
  H   H25       1.0  0.17577  0.61952  0.49972  1.0000
  H   H26       1.0  0.82313  0.37750  0.52148  1.0000
  H   H27       1.0  0.33951  0.26815  0.54063  1.0000
  H   H28       1.0  0.65920  0.73090  0.54792  1.0000
  C   C47       1.0  0.95522  0.99758  0.49051  1.0000
  C   C48       1.0  0.04458  0.99846  0.48656  1.0000
  C   C49       1.0  0.10227  0.92112  0.48845  1.0000
  C   C50       1.0  0.17560  0.91260  0.39679  1.0000
  C   C51       1.0  0.23123  0.84129  0.39495  1.0000
  C   C52       1.0  0.21509  0.77486  0.48484  1.0000
  C   C53       1.0  0.14332  0.78374  0.57986  1.0000
  C   C54       1.0  0.08868  0.85569  0.58106  1.0000
  H   H29       1.0  0.03386  0.86200  0.65481  1.0000
  H   H30       1.0  0.18810  0.96278  0.32508  1.0000
  H   H31       1.0  0.28642  0.83457  0.32143  1.0000
  H   H32       1.0  0.13297  0.73546  0.65625  1.0000
  C   C55       1.0  0.90885  0.91802  0.48746  1.0000
  C   C56       1.0  0.83593  0.90982  0.57721  1.0000
  C   C57       1.0  0.79337  0.83487  0.58244  1.0000
  C   C58       1.0  0.82213  0.76472  0.49625  1.0000
  C   C59       1.0  0.89432  0.77288  0.40496  1.0000
  C   C60       1.0  0.93574  0.84806  0.40006  1.0000
  H   H33       1.0  0.81468  0.96279  0.64692  1.0000
  H   H34       1.0  0.74031  0.82928  0.65839  1.0000
  H   H35       1.0  0.91620  0.71906  0.33755  1.0000
  H   H36       1.0  0.99191  0.85269  0.33059  1.0000
  C   C61       1.0  0.92549  0.83184  0.88628  1.0000
  C   C62       1.0  0.90894  0.90835  0.96085  1.0000
  C  Sn1       1.0  0.86118  0.89504  0.06779  1.0000
  C  Sn2       1.0  0.81304  0.82423  0.10045  1.0000
  C   C63       1.0  0.83013  0.74795  0.02530  1.0000
  C   C64       1.0  0.87805  0.76196  0.91847  1.0000
  H   H37       1.0  0.97513  0.82677  0.80367  1.0000
  O  Te1       1.0  0.84546  0.97196  0.14122  1.0000
  O  Te2       1.0  0.74878  0.82970  0.20686  1.0000
  H   H38       1.0  0.89089  0.70270  0.86081  1.0000
  Mg  Mg1       1.0  0.75124  0.94807  0.27714  1.0000
  C   C65       1.0  0.06685  0.16708  0.38819  1.0000
  C   C66       1.0  0.08765  0.09149  0.45318  1.0000
  C  Sn3       1.0  0.15505  0.08664  0.54842  1.0000
  C  Sn4       1.0  0.20237  0.15893  0.57898  1.0000
  C   C67       1.0  0.18102  0.23428  0.51349  1.0000
  C   C68       1.0  0.11347  0.23842  0.41832  1.0000
  H   H39       1.0  0.01456  0.17031  0.31462  1.0000
  O  Te3       1.0  0.12516  0.01061  0.61237  1.0000
  O  Te4       1.0  0.27003  0.15585  0.67379  1.0000
  H   H40       1.0  0.09735  0.29698  0.36809  1.0000
  Mg  Mg2       1.0  0.27276  0.03786  0.73409  1.0000
  C   C69       1.0  0.90874  0.16673  0.60335  1.0000
  C   C70       1.0  0.90036  0.09070  0.52811  1.0000
  C  Sn5       1.0  0.83076  0.08071  0.43893  1.0000
  C  Sn6       1.0  0.76852  0.14820  0.42499  1.0000
  C   C71       1.0  0.77751  0.22403  0.50063  1.0000
  C   C72       1.0  0.84739  0.23334  0.58962  1.0000
  H   H41       1.0  0.96283  0.17395  0.67214  1.0000
  O  Te5       1.0  0.77352  0.00433  0.36457  1.0000
  O  Te6       1.0  0.69834  0.13993  0.33655  1.0000
  H   H42       1.0  0.85389  0.29222  0.64778  1.0000
  Mg  Mg3       1.0  0.71634  0.02358  0.25724  1.0000
  C   C73       1.0  0.09718  0.20718  0.88938  1.0000
  C   C74       1.0  0.16031  0.23181  0.98303  1.0000
  C  Sn7       1.0  0.21120  0.15428  0.07790  1.0000
  C  Sn8       1.0  0.18204  0.07113  0.07877  1.0000
  C   C75       1.0  0.10270  0.06763  0.98459  1.0000
  C   C76       1.0  0.06840  0.12517  0.89013  1.0000
  H   H43       1.0  0.07066  0.25169  0.81624  1.0000
  O  Te7       1.0  0.27421  0.17994  0.17078  1.0000
  O  Te8       1.0  0.21564  0.01289  0.17245  1.0000
  H   H44       1.0  0.01956  0.10607  0.81758  1.0000
  Mg  Mg4       1.0  0.30031  0.07773  0.27862  1.0000
