data_image0
_chemical_formula_structural       C7HC4HC4HC4HC4HC4HC4HC4HC4HC4HC4HC4HC4HC4HC4HC4HC4HC4HC4HC4HC4HC4HC4HC4HO24B12Ni4SnCSn2CSnTe4Mg2SnCSn2CSnTe4Mg2SnCSn2CSnTe4Mg2SnCSn2CSnTe4Mg2SnCSn2CSnTe4Mg2SnCSn2CSnTe4Mg2SnCSn2CSnTe4Mg2SnCSn2CSnTe4Mg2SnCSn2CSnTe4Mg2SnCSn2CSnTe4Mg2SnCSn2CSnTe4Mg2SnCSn2CSnTe4Mg2
_chemical_formula_sum              "C123 H24 O24 B12 Ni4 Sn48 Te48 Mg24"
_cell_length_a       32.2325
_cell_length_b       31.9328
_cell_length_c       32.0782
_cell_angle_alpha    89.8895
_cell_angle_beta     89.868
_cell_angle_gamma    90.0761

_symmetry_space_group_name_H-M    'P1'
_space_group_IT_number       1

loop_
  _space_group_symop_operation_xyz
  'x, y, z'

loop_
  _atom_site_type_symbol
  _atom_site_label
  _atom_site_symmetry_multiplicity
  _atom_site_fract_x
  _atom_site_fract_y
  _atom_site_fract_z
  _atom_site_occupancy
  C   C1        1.0  0.50094  0.50045  0.99996  1.0000
  C   C2        1.0  0.99958  0.49999  0.49975  1.0000
  C   C3        1.0  0.49894  0.99985  0.50036  1.0000
  C   C4        1.0  0.63431  0.60255  0.18499  1.0000
  C   C5        1.0  0.66512  0.60030  0.21453  1.0000
  C   C6        1.0  0.69474  0.63757  0.27715  1.0000
  C   C7        1.0  0.66639  0.63345  0.24430  1.0000
  H   H1        1.0  0.68722  0.57466  0.21557  1.0000
  C   C8        1.0  0.36772  0.39727  0.18516  1.0000
  C   C9        1.0  0.33549  0.39921  0.21365  1.0000
  C   C10       1.0  0.30498  0.36500  0.27741  1.0000
  C   C11       1.0  0.33504  0.36819  0.24511  1.0000
  H   H2        1.0  0.31190  0.42342  0.21179  1.0000
  C   C12       1.0  0.36382  0.60143  0.81652  1.0000
  C   C13       1.0  0.33174  0.60033  0.78796  1.0000
  C   C14       1.0  0.30222  0.63588  0.72470  1.0000
  C   C15       1.0  0.33184  0.63197  0.75712  1.0000
  H   H3        1.0  0.30768  0.57652  0.78910  1.0000
  C   C16       1.0  0.63536  0.39799  0.81521  1.0000
  C   C17       1.0  0.66545  0.40025  0.78453  1.0000
  C   C18       1.0  0.69342  0.36486  0.72083  1.0000
  C   C19       1.0  0.66489  0.36818  0.75430  1.0000
  H   H4        1.0  0.68822  0.42535  0.78355  1.0000
  C   C20       1.0  0.18607  0.63091  0.60134  1.0000
  C   C21       1.0  0.21418  0.66343  0.60082  1.0000
  C   C22       1.0  0.27515  0.69497  0.63751  1.0000
  C   C23       1.0  0.24396  0.66408  0.63344  1.0000
  H   H5        1.0  0.21376  0.68738  0.57673  1.0000
  C   C24       1.0  0.18319  0.36738  0.39595  1.0000
  C   C25       1.0  0.21159  0.33527  0.39719  1.0000
  C   C26       1.0  0.27506  0.30582  0.36358  1.0000
  C   C27       1.0  0.24308  0.33588  0.36615  1.0000
  H   H6        1.0  0.21026  0.31073  0.42065  1.0000
  C   C28       1.0  0.81288  0.36680  0.60032  1.0000
  C   C29       1.0  0.78534  0.33380  0.60061  1.0000
  C   C30       1.0  0.72322  0.30320  0.63675  1.0000
  C   C31       1.0  0.75398  0.33448  0.63185  1.0000
  H   H7        1.0  0.78755  0.30838  0.57827  1.0000
  C   C32       1.0  0.81674  0.63380  0.39554  1.0000
  C   C33       1.0  0.78828  0.66615  0.39700  1.0000
  C   C34       1.0  0.72476  0.69599  0.36266  1.0000
  C   C35       1.0  0.75690  0.66582  0.36631  1.0000
  H   H8        1.0  0.79008  0.69047  0.42058  1.0000
  C   C36       1.0  0.60516  0.18006  0.63905  1.0000
  C   C37       1.0  0.60372  0.20997  0.66980  1.0000
  C   C38       1.0  0.63940  0.27490  0.69641  1.0000
  C   C39       1.0  0.63568  0.24100  0.66897  1.0000
  H   H9        1.0  0.57921  0.21079  0.69306  1.0000
  C   C40       1.0  0.39719  0.18779  0.37054  1.0000
  C   C41       1.0  0.39895  0.21697  0.33908  1.0000
  C   C42       1.0  0.36171  0.27894  0.30853  1.0000
  C   C43       1.0  0.36598  0.24662  0.33780  1.0000
  H   H10       1.0  0.42401  0.21766  0.31641  1.0000
  C   C44       1.0  0.60396  0.81575  0.36565  1.0000
  C   C45       1.0  0.60381  0.78750  0.33330  1.0000
  C   C46       1.0  0.63921  0.72490  0.30333  1.0000
  C   C47       1.0  0.63559  0.75674  0.33358  1.0000
  H   H11       1.0  0.58051  0.78823  0.30891  1.0000
  C   C48       1.0  0.39553  0.81568  0.63661  1.0000
  C   C49       1.0  0.39671  0.78596  0.66759  1.0000
  C   C50       1.0  0.35966  0.72259  0.69574  1.0000
  C   C51       1.0  0.36421  0.75559  0.66731  1.0000
  H   H12       1.0  0.42100  0.78526  0.69099  1.0000
  C   C52       1.0  0.60526  0.63573  0.18337  1.0000
  C   C53       1.0  0.60507  0.66831  0.21164  1.0000
  C   C54       1.0  0.63987  0.69713  0.27513  1.0000
  C   C55       1.0  0.63588  0.66717  0.24285  1.0000
  H   H13       1.0  0.58229  0.69329  0.21014  1.0000
  C   C56       1.0  0.39906  0.36626  0.18650  1.0000
  C   C57       1.0  0.39978  0.33524  0.21622  1.0000
  C   C58       1.0  0.36212  0.30751  0.27927  1.0000
  C   C59       1.0  0.36714  0.33596  0.24636  1.0000
  H   H14       1.0  0.42372  0.31134  0.21702  1.0000
  C   C60       1.0  0.60499  0.36593  0.81660  1.0000
  C   C61       1.0  0.60319  0.33410  0.78788  1.0000
  C   C62       1.0  0.63865  0.30508  0.72401  1.0000
  C   C63       1.0  0.63400  0.33472  0.75588  1.0000
  H   H15       1.0  0.57970  0.30973  0.78928  1.0000
  C   C64       1.0  0.39533  0.63237  0.81570  1.0000
  C   C65       1.0  0.39665  0.66385  0.78651  1.0000
  C   C66       1.0  0.35959  0.69320  0.72418  1.0000
  C   C67       1.0  0.36419  0.66399  0.75642  1.0000
  H   H16       1.0  0.42090  0.68748  0.78620  1.0000
  C   C68       1.0  0.63676  0.17915  0.60834  1.0000
  C   C69       1.0  0.66840  0.20837  0.60636  1.0000
  C   C70       1.0  0.69654  0.27391  0.63884  1.0000
  C   C71       1.0  0.66786  0.24020  0.63685  1.0000
  H   H17       1.0  0.69202  0.20737  0.58219  1.0000
  C   C72       1.0  0.36455  0.18622  0.40011  1.0000
  C   C73       1.0  0.33216  0.21459  0.40039  1.0000
  C   C74       1.0  0.30296  0.27780  0.36424  1.0000
  C   C75       1.0  0.33284  0.24557  0.36889  1.0000
  H   H18       1.0  0.30758  0.21328  0.42358  1.0000
  C   C76       1.0  0.36412  0.81666  0.60584  1.0000
  C   C77       1.0  0.33194  0.78803  0.60441  1.0000
  C   C78       1.0  0.30226  0.72386  0.63871  1.0000
  C   C79       1.0  0.33187  0.75664  0.63549  1.0000
  H   H19       1.0  0.30807  0.78947  0.58061  1.0000
  C   C80       1.0  0.63378  0.81473  0.39789  1.0000
  C   C81       1.0  0.66540  0.78578  0.39915  1.0000
  C   C82       1.0  0.69658  0.72382  0.36304  1.0000
  C   C83       1.0  0.66661  0.75598  0.36632  1.0000
  H   H20       1.0  0.68812  0.78524  0.42410  1.0000
  C   C84       1.0  0.18595  0.59958  0.63257  1.0000
  C   C85       1.0  0.21414  0.59894  0.66474  1.0000
  C   C86       1.0  0.27520  0.63536  0.69592  1.0000
  C   C87       1.0  0.24397  0.63170  0.66532  1.0000
  H   H21       1.0  0.21396  0.57464  0.68847  1.0000
  C   C88       1.0  0.18443  0.39945  0.36550  1.0000
  C   C89       1.0  0.21434  0.40127  0.33483  1.0000
  C   C90       1.0  0.27697  0.36561  0.30536  1.0000
  C   C91       1.0  0.24437  0.36873  0.33477  1.0000
  H   H22       1.0  0.21539  0.42637  0.31195  1.0000
  C   C92       1.0  0.81515  0.60126  0.36566  1.0000
  C   C93       1.0  0.78528  0.59962  0.33519  1.0000
  C   C94       1.0  0.72315  0.63727  0.30627  1.0000
  C   C95       1.0  0.75557  0.63271  0.33497  1.0000
  H   H23       1.0  0.78397  0.57464  0.31231  1.0000
  C   C96       1.0  0.81072  0.40013  0.62920  1.0000
  C   C97       1.0  0.78109  0.40206  0.66009  1.0000
  C   C98       1.0  0.72046  0.36533  0.69200  1.0000
  C   C99       1.0  0.75216  0.36853  0.66176  1.0000
  H   H24       1.0  0.77974  0.42775  0.68218  1.0000
  O   O1        1.0  0.62558  0.57465  0.15312  1.0000
  O   O2        1.0  0.37533  0.42378  0.15196  1.0000
  O   O3        1.0  0.37108  0.57440  0.84942  1.0000
  O   O4        1.0  0.62885  0.42533  0.84789  1.0000
  O   O5        1.0  0.15431  0.62288  0.57341  1.0000
  O   O6        1.0  0.15024  0.37460  0.42274  1.0000
  O   O7        1.0  0.84602  0.37359  0.57350  1.0000
  O   O8        1.0  0.84996  0.62706  0.42180  1.0000
  O   O9        1.0  0.57716  0.14799  0.63114  1.0000
  O   O10       1.0  0.42499  0.15593  0.37902  1.0000
  O   O11       1.0  0.57658  0.84827  0.37298  1.0000
  O   O12       1.0  0.42318  0.84812  0.62917  1.0000
  O   O13       1.0  0.57843  0.62919  0.15046  1.0000
  O   O14       1.0  0.42684  0.37316  0.15408  1.0000
  O   O15       1.0  0.57885  0.37310  0.85018  1.0000
  O   O16       1.0  0.42275  0.62497  0.84808  1.0000
  O   O17       1.0  0.62921  0.14654  0.58114  1.0000
  O   O18       1.0  0.37118  0.15299  0.42701  1.0000
  O   O19       1.0  0.37177  0.84954  0.57886  1.0000
  O   O20       1.0  0.62510  0.84637  0.42609  1.0000
  O   O21       1.0  0.15401  0.57163  0.62480  1.0000
  O   O22       1.0  0.15208  0.42705  0.37272  1.0000
  O   O23       1.0  0.84746  0.57350  0.37309  1.0000
  O   O24       1.0  0.84233  0.42832  0.62090  1.0000
  B   B1        1.0  0.59092  0.59110  0.13238  1.0000
  B   B2        1.0  0.86840  0.58958  0.40798  1.0000
  B   B3        1.0  0.58973  0.86679  0.41044  1.0000
  B   B4        1.0  0.41214  0.40894  0.13328  1.0000
  B   B5        1.0  0.13149  0.41150  0.40817  1.0000
  B   B6        1.0  0.40865  0.13459  0.41365  1.0000
  B   B7        1.0  0.40785  0.58887  0.86823  1.0000
  B   B8        1.0  0.13468  0.58647  0.58840  1.0000
  B   B9        1.0  0.40873  0.86823  0.59308  1.0000
  B   B10       1.0  0.59321  0.41029  0.86860  1.0000
  B   B11       1.0  0.86404  0.41148  0.58676  1.0000
  B   B12       1.0  0.59167  0.12842  0.59469  1.0000
  Ni  Ni1       1.0  0.31320  0.68603  0.68791  1.0000
  Ni  Ni2       1.0  0.68387  0.31334  0.68615  1.0000
  Ni  Ni3       1.0  0.68791  0.68483  0.31325  1.0000
  Ni  Ni4       1.0  0.31539  0.31555  0.31524  1.0000
  C  Sn1       1.0  0.48224  0.42252  0.04501  1.0000
  C   C100      1.0  0.47146  0.46034  0.02593  1.0000
  C  Sn2       1.0  0.44234  0.48683  0.04445  1.0000
  C  Sn3       1.0  0.42361  0.47530  0.08285  1.0000
  C   C101      1.0  0.43440  0.43750  0.10191  1.0000
  C  Sn4       1.0  0.46351  0.41098  0.08341  1.0000
  O  Te1       1.0  0.51143  0.39652  0.02594  1.0000
  O  Te2       1.0  0.43205  0.52448  0.02478  1.0000
  O  Te3       1.0  0.39440  0.50133  0.10192  1.0000
  O  Te4       1.0  0.47381  0.37336  0.10306  1.0000
  Mg  Mg1       1.0  0.39061  0.54937  0.06303  1.0000
  Mg  Mg2       1.0  0.51525  0.34846  0.06486  1.0000
  C  Sn5       1.0  0.51873  0.57643  0.08110  1.0000
  C   C102      1.0  0.55640  0.56590  0.09985  1.0000
  C  Sn6       1.0  0.58269  0.53654  0.08135  1.0000
  C  Sn7       1.0  0.57110  0.51732  0.04328  1.0000
  C   C103      1.0  0.53345  0.52786  0.02454  1.0000
  C  Sn8       1.0  0.50714  0.55721  0.04303  1.0000
  O  Te5       1.0  0.49293  0.60586  0.10015  1.0000
  O  Te6       1.0  0.62018  0.52652  0.10069  1.0000
  O  Te7       1.0  0.59693  0.48787  0.02423  1.0000
  O  Te8       1.0  0.46967  0.56724  0.02370  1.0000
  Mg  Mg3       1.0  0.64482  0.48460  0.06261  1.0000
  Mg  Mg4       1.0  0.44502  0.60917  0.06174  1.0000
  C  Sn9       1.0  0.52086  0.42528  0.91899  1.0000
  C   C104      1.0  0.55871  0.43618  0.90057  1.0000
  C  Sn10      1.0  0.58449  0.46587  0.91926  1.0000
  C  Sn11      1.0  0.57220  0.48505  0.95716  1.0000
  C   C105      1.0  0.53438  0.47415  0.97556  1.0000
  C  Sn12      1.0  0.50857  0.44446  0.95689  1.0000
  O  Te9       1.0  0.49558  0.39552  0.89976  1.0000
  O  Te10      1.0  0.62218  0.47627  0.90025  1.0000
  O  Te11      1.0  0.59752  0.51484  0.97638  1.0000
  O  Te12      1.0  0.47091  0.43406  0.97588  1.0000
  Mg  Mg5       1.0  0.64592  0.51855  0.93847  1.0000
  Mg  Mg6       1.0  0.44715  0.39177  0.93770  1.0000
  C  Sn13      1.0  0.43754  0.50480  0.93789  1.0000
  C   C106      1.0  0.47330  0.51816  0.95855  1.0000
  C  Sn14      1.0  0.48652  0.55972  0.95529  1.0000
  C  Sn15      1.0  0.46350  0.58854  0.93089  1.0000
  C   C107      1.0  0.42776  0.57518  0.91025  1.0000
  C  Sn16      1.0  0.41452  0.53362  0.91349  1.0000
  O  Te13      1.0  0.42491  0.46311  0.94159  1.0000
  O  Te14      1.0  0.52237  0.57234  0.97622  1.0000
  O  Te15      1.0  0.47617  0.63026  0.92720  1.0000
  O  Te16      1.0  0.37869  0.52100  0.89258  1.0000
  Mg  Mg7       1.0  0.52703  0.63243  0.96159  1.0000
  Mg  Mg8       1.0  0.37399  0.46093  0.90721  1.0000
  C  Sn17      1.0  0.06333  0.41171  0.46746  1.0000
  C   C108      1.0  0.08285  0.42388  0.43042  1.0000
  C  Sn18      1.0  0.07855  0.46473  0.41539  1.0000
  C  Sn19      1.0  0.05423  0.49403  0.43787  1.0000
  C   C109      1.0  0.03473  0.48186  0.47489  1.0000
  C  Sn20      1.0  0.03901  0.44102  0.48993  1.0000
  O  Te17      1.0  0.06806  0.37071  0.48190  1.0000
  O  Te18      1.0  0.09835  0.47616  0.37828  1.0000
  O  Te19      1.0  0.04951  0.53506  0.42339  1.0000
  O  Te20      1.0  0.01923  0.42959  0.52702  1.0000
  Mg  Mg9       1.0  0.08257  0.53565  0.37132  1.0000
  Mg  Mg10      1.0  0.03500  0.37011  0.53402  1.0000
  C  Sn21      1.0  0.07963  0.51616  0.57561  1.0000
  C   C110      1.0  0.10071  0.55265  0.56401  1.0000
  C  Sn22      1.0  0.08401  0.57950  0.53401  1.0000
  C  Sn23      1.0  0.04541  0.56969  0.51523  1.0000
  C   C111      1.0  0.02435  0.53322  0.52684  1.0000
  C  Sn24      1.0  0.04103  0.50635  0.55684  1.0000
  O  Te21      1.0  0.09691  0.48978  0.60567  1.0000
  O  Te22      1.0  0.10567  0.61579  0.52290  1.0000
  O  Te23      1.0  0.02814  0.59611  0.48515  1.0000
  O  Te24      1.0  0.01939  0.47009  0.56795  1.0000
  Mg  Mg11      1.0  0.06939  0.64186  0.48046  1.0000
  Mg  Mg12      1.0  0.05562  0.44401  0.61040  1.0000
  C  Sn25      1.0  0.91775  0.51680  0.42612  1.0000
  C   C112      1.0  0.90084  0.55624  0.43424  1.0000
  C  Sn26      1.0  0.92115  0.58411  0.46081  1.0000
  C  Sn27      1.0  0.95918  0.57235  0.47963  1.0000
  C   C113      1.0  0.97607  0.53294  0.47150  1.0000
  C  Sn28      1.0  0.95578  0.50504  0.44494  1.0000
  O  Te25      1.0  0.89691  0.48944  0.39946  1.0000
  O  Te26      1.0  0.90363  0.62336  0.46846  1.0000
  O  Te27      1.0  0.98001  0.59975  0.50631  1.0000
  O  Te28      1.0  0.97328  0.46582  0.43728  1.0000
  Mg  Mg13      1.0  0.94374  0.64972  0.50704  1.0000
  Mg  Mg14      1.0  0.93321  0.43944  0.39869  1.0000
  C  Sn29      1.0  0.95210  0.48211  0.57545  1.0000
  C   C114      1.0  0.97288  0.47028  0.53905  1.0000
  C  Sn30      1.0  0.95596  0.43990  0.51281  1.0000
  C  Sn31      1.0  0.91746  0.42096  0.52315  1.0000
  C   C115      1.0  0.89670  0.43279  0.55952  1.0000
  C  Sn32      1.0  0.91360  0.46317  0.58578  1.0000
  O  Te29      1.0  0.96960  0.51255  0.60122  1.0000
  O  Te30      1.0  0.97732  0.42858  0.47660  1.0000
  O  Te31      1.0  0.89997  0.39049  0.49733  1.0000
  O  Te32      1.0  0.89226  0.47449  0.62197  1.0000
  Mg  Mg15      1.0  0.94084  0.38562  0.45145  1.0000
  Mg  Mg16      1.0  0.92870  0.51746  0.64713  1.0000
  C  Sn33      1.0  0.42137  0.07865  0.48329  1.0000
  C   C116      1.0  0.43282  0.10029  0.44713  1.0000
  C  Sn34      1.0  0.46346  0.08426  0.42078  1.0000
  C  Sn35      1.0  0.48306  0.04580  0.43075  1.0000
  C   C117      1.0  0.47160  0.02418  0.46688  1.0000
  C  Sn36      1.0  0.44096  0.04018  0.49326  1.0000
  O  Te33      1.0  0.39066  0.09525  0.50918  1.0000
  O  Te34      1.0  0.47439  0.10647  0.38481  1.0000
  O  Te35      1.0  0.51379  0.02920  0.40482  1.0000
  O  Te36      1.0  0.43003  0.01799  0.52920  1.0000
  Mg  Mg17      1.0  0.51794  0.07102  0.35937  1.0000
  Mg  Mg18      1.0  0.38647  0.05340  0.55465  1.0000
  C  Sn37      1.0  0.57754  0.07805  0.52105  1.0000
  C   C118      1.0  0.56589  0.09830  0.55784  1.0000
  C  Sn38      1.0  0.53378  0.08227  0.58247  1.0000
  C  Sn39      1.0  0.51288  0.04523  0.57010  1.0000
  C   C119      1.0  0.52453  0.02500  0.53333  1.0000
  C  Sn40      1.0  0.55665  0.04101  0.50867  1.0000
  O  Te37      1.0  0.60974  0.09463  0.49690  1.0000
  O  Te38      1.0  0.52268  0.10307  0.61911  1.0000
  O  Te39      1.0  0.48066  0.02866  0.59428  1.0000
  O  Te40      1.0  0.56775  0.02023  0.47206  1.0000
  Mg  Mg19      1.0  0.47687  0.06826  0.64152  1.0000
  Mg  Mg20      1.0  0.61357  0.05499  0.44964  1.0000
  C  Sn41      1.0  0.46545  0.93920  0.59091  1.0000
  C   C120      1.0  0.43075  0.91628  0.57822  1.0000
  C  Sn42      1.0  0.41819  0.91689  0.53658  1.0000
  C  Sn43      1.0  0.44079  0.94089  0.50699  1.0000
  C   C121      1.0  0.47547  0.96378  0.51967  1.0000
  C  Sn44      1.0  0.48805  0.96319  0.56131  1.0000
  O  Te41      1.0  0.47745  0.93812  0.63270  1.0000
  O  Te42      1.0  0.38339  0.89373  0.52464  1.0000
  O  Te43      1.0  0.42876  0.94194  0.46517  1.0000
  O  Te44      1.0  0.52283  0.98633  0.57325  1.0000
  Mg  Mg21      1.0  0.37928  0.90518  0.46411  1.0000
  Mg  Mg22      1.0  0.52698  0.97488  0.63376  1.0000
  C  Sn45      1.0  0.57470  0.95311  0.48285  1.0000
  C   C122      1.0  0.53805  0.97327  0.47118  1.0000
  C  Sn46      1.0  0.51278  0.95627  0.44020  1.0000
  C  Sn47      1.0  0.52435  0.91831  0.42048  1.0000
  C   C123      1.0  0.56097  0.89817  0.43216  1.0000
  C  Sn48      1.0  0.58628  0.91515  0.46314  1.0000
  O  Te45      1.0  0.59950  0.97067  0.51391  1.0000
  O  Te46      1.0  0.47629  0.97701  0.42905  1.0000
  O  Te47      1.0  0.49952  0.90076  0.38940  1.0000
  O  Te48      1.0  0.62274  0.89444  0.47429  1.0000
  Mg  Mg23      1.0  0.45280  0.94068  0.38505  1.0000
  Mg  Mg24      1.0  0.64624  0.93072  0.51829  1.0000
