data_image0
_chemical_formula_structural       C3HC3F2CNHC9H5C3F2CNHC9H5C3F2CNHC9H5C3F2CNHC3HC3F2CNHC9H5C3F2CNHC3HC3F2CNHC3HC3F2CNHC2HC2HC2HC2HC9H5C3F2CNHC3HC3F2CNHC9H5C3F2CNHC3HC3F2CNHC9H5C3F2CNHC9H5C3F2CNHC3HC3F2CNHC3HC3F2CNHC2HC2HC2HC2HC2Sn2C2HTe2HMgC2Sn2C2HTe2HMgC2Sn2C2HTe2HMgC2Sn2C2HTe2HMgC2Sn2C2HTe2HMgC2Sn2C2HTe2HMgC2Sn2C2HTe2HMgC2Sn2C2HTe2HMg
_chemical_formula_sum              "C208 H88 F32 N16 Sn16 Te16 Mg8"
_cell_length_a       33.1659
_cell_length_b       35.4643
_cell_length_c       8.00578
_cell_angle_alpha    90.5536
_cell_angle_beta     90.2068
_cell_angle_gamma    89.9834

_symmetry_space_group_name_H-M    'P1'
_space_group_IT_number       1

loop_
  _space_group_symop_operation_xyz
  'x, y, z'

loop_
  _atom_site_type_symbol
  _atom_site_label
  _atom_site_symmetry_multiplicity
  _atom_site_fract_x
  _atom_site_fract_y
  _atom_site_fract_z
  _atom_site_occupancy
  C   C1        1.0  0.54524  0.53440  0.88607  1.0000
  C   C2        1.0  0.48168  0.56835  0.85506  1.0000
  C   C3        1.0  0.41632  0.53591  0.91472  1.0000
  H   H1        1.0  0.46567  0.59423  0.82671  1.0000
  C   C4        1.0  0.22071  0.77934  0.01733  1.0000
  C   C5        1.0  0.21487  0.74370  0.94313  1.0000
  C   C6        1.0  0.24361  0.71529  0.94805  1.0000
  F   F1        1.0  0.17948  0.73541  0.86628  1.0000
  F   F2        1.0  0.23247  0.68178  0.88278  1.0000
  C   C7        1.0  0.19092  0.80943  0.99878  1.0000
  N   N1        1.0  0.18980  0.83715  0.10445  1.0000
  H   H2        1.0  0.82693  0.18698  0.85530  1.0000
  C   C8        1.0  0.45814  0.46537  0.90653  1.0000
  C   C9        1.0  0.52138  0.43072  0.87781  1.0000
  C   C10       1.0  0.58732  0.46437  0.91239  1.0000
  C   C11       1.0  0.61215  0.42982  0.91631  1.0000
  C   C12       1.0  0.64912  0.42957  0.83019  1.0000
  C   C13       1.0  0.67385  0.39804  0.82859  1.0000
  C   C14       1.0  0.66288  0.36517  0.91428  1.0000
  C   C15       1.0  0.62597  0.36502  0.00101  1.0000
  C   C16       1.0  0.60139  0.39685  0.00291  1.0000
  H   H3        1.0  0.53704  0.40422  0.85644  1.0000
  H   H4        1.0  0.65763  0.45412  0.75801  1.0000
  H   H5        1.0  0.70195  0.39775  0.75910  1.0000
  H   H6        1.0  0.61667  0.34017  0.06953  1.0000
  H   H7        1.0  0.57402  0.39670  0.07727  1.0000
  C   C17       1.0  0.77659  0.21562  0.97510  1.0000
  C   C18       1.0  0.78422  0.25076  0.90160  1.0000
  C   C19       1.0  0.75678  0.28031  0.90635  1.0000
  F   F3        1.0  0.82011  0.25701  0.82516  1.0000
  F   F4        1.0  0.76773  0.31263  0.83311  1.0000
  C   C20       1.0  0.80660  0.18561  0.96286  1.0000
  N   N2        1.0  0.80765  0.15937  0.07342  1.0000
  H   H8        1.0  0.17157  0.80734  0.88750  1.0000
  C   C21       1.0  0.95781  0.03483  0.09520  1.0000
  C   C22       1.0  0.02108  0.06939  0.12536  1.0000
  C   C23       1.0  0.08688  0.03622  0.07919  1.0000
  C   C24       1.0  0.11176  0.07073  0.07877  1.0000
  C   C25       1.0  0.14923  0.07030  0.16247  1.0000
  C   C26       1.0  0.17460  0.10137  0.16181  1.0000
  C   C27       1.0  0.16373  0.13436  0.07627  1.0000
  C   C28       1.0  0.12594  0.13552  0.99557  1.0000
  C   C29       1.0  0.10072  0.10414  0.99602  1.0000
  H   H9        1.0  0.03681  0.09572  0.14983  1.0000
  H   H10       1.0  0.15769  0.04561  0.23411  1.0000
  H   H11       1.0  0.20320  0.10119  0.22855  1.0000
  H   H12       1.0  0.11646  0.16089  0.93095  1.0000
  H   H13       1.0  0.07251  0.10505  0.92655  1.0000
  C   C30       1.0  0.28259  0.27950  0.01846  1.0000
  C   C31       1.0  0.28925  0.24352  0.08558  1.0000
  C   C32       1.0  0.26098  0.21463  0.07521  1.0000
  F   F5        1.0  0.32529  0.23620  0.15894  1.0000
  F   F6        1.0  0.27078  0.18106  0.14158  1.0000
  C   C33       1.0  0.31264  0.30942  0.03998  1.0000
  N   N3        1.0  0.31304  0.33726  0.93720  1.0000
  H   H14       1.0  0.66893  0.69224  0.11570  1.0000
  C   C34       1.0  0.04517  0.96585  0.09472  1.0000
  C   C35       1.0  0.98198  0.93142  0.12554  1.0000
  C   C36       1.0  0.91624  0.96430  0.07822  1.0000
  C   C37       1.0  0.89111  0.92994  0.08008  1.0000
  C   C38       1.0  0.85416  0.93141  0.16620  1.0000
  C   C39       1.0  0.82867  0.90047  0.17193  1.0000
  C   C40       1.0  0.83870  0.86669  0.08890  1.0000
  C   C41       1.0  0.87573  0.86465  0.00336  1.0000
  C   C42       1.0  0.90123  0.89584  0.99857  1.0000
  H   H15       1.0  0.96621  0.90531  0.15158  1.0000
  H   H16       1.0  0.84633  0.95689  0.23529  1.0000
  H   H17       1.0  0.80071  0.90139  0.24235  1.0000
  H   H18       1.0  0.88450  0.83875  0.93918  1.0000
  H   H19       1.0  0.92887  0.89425  0.92614  1.0000
  C   C43       1.0  0.72068  0.72030  0.00667  1.0000
  C   C44       1.0  0.71281  0.75563  0.08134  1.0000
  C   C45       1.0  0.73990  0.78550  0.07510  1.0000
  F   F7        1.0  0.67685  0.76183  0.15779  1.0000
  F   F8        1.0  0.72735  0.81917  0.13390  1.0000
  C   C46       1.0  0.69080  0.69002  0.01358  1.0000
  N   N4        1.0  0.69154  0.66268  0.90579  1.0000
  H   H20       1.0  0.33314  0.30667  0.14703  1.0000
  C   C47       1.0  0.95891  0.96467  0.09592  1.0000
  C   C48       1.0  0.02318  0.93198  0.12434  1.0000
  C   C49       1.0  0.08782  0.96660  0.07685  1.0000
  H   H21       1.0  0.03983  0.90621  0.14806  1.0000
  C   C50       1.0  0.28171  0.72097  0.02370  1.0000
  C   C51       1.0  0.28746  0.75658  0.10010  1.0000
  C   C52       1.0  0.25796  0.78445  0.09992  1.0000
  F   F9        1.0  0.32317  0.76540  0.17480  1.0000
  F   F10       1.0  0.26683  0.81739  0.17533  1.0000
  C   C53       1.0  0.31284  0.69173  0.02904  1.0000
  N   N5        1.0  0.31292  0.66494  0.91841  1.0000
  H   H22       1.0  0.66888  0.30495  0.10824  1.0000
  C   C54       1.0  0.04418  0.03600  0.09598  1.0000
  C   C55       1.0  0.97986  0.06881  0.12534  1.0000
  C   C56       1.0  0.91518  0.03388  0.07572  1.0000
  C   C57       1.0  0.88921  0.06761  0.07111  1.0000
  C   C58       1.0  0.85135  0.06634  0.15042  1.0000
  C   C59       1.0  0.82545  0.09700  0.14866  1.0000
  C   C60       1.0  0.83606  0.13024  0.06525  1.0000
  C   C61       1.0  0.87391  0.13203  0.98640  1.0000
  C   C62       1.0  0.89978  0.10114  0.98888  1.0000
  H   H23       1.0  0.96332  0.09470  0.15004  1.0000
  H   H24       1.0  0.84300  0.04134  0.21988  1.0000
  H   H25       1.0  0.79671  0.09638  0.21356  1.0000
  H   H26       1.0  0.88302  0.15756  0.92241  1.0000
  H   H27       1.0  0.92818  0.10244  0.92187  1.0000
  C   C63       1.0  0.71947  0.27691  0.98851  1.0000
  C   C64       1.0  0.71202  0.24178  0.06261  1.0000
  C   C65       1.0  0.73904  0.21187  0.05583  1.0000
  F   F11       1.0  0.67654  0.23621  0.14194  1.0000
  F   F12       1.0  0.72737  0.17911  0.12482  1.0000
  C   C66       1.0  0.68998  0.30736  0.00385  1.0000
  N   N6        1.0  0.69021  0.33518  0.90068  1.0000
  H   H28       1.0  0.33458  0.69394  0.13224  1.0000
  C   C67       1.0  0.54452  0.46437  0.89920  1.0000
  C   C68       1.0  0.48019  0.43121  0.88109  1.0000
  C   C69       1.0  0.41557  0.46633  0.92802  1.0000
  H   H29       1.0  0.46364  0.40511  0.86187  1.0000
  C   C70       1.0  0.22370  0.21995  0.99294  1.0000
  C   C71       1.0  0.21737  0.25567  0.92198  1.0000
  C   C72       1.0  0.24558  0.28462  0.93430  1.0000
  F   F13       1.0  0.18198  0.26280  0.84191  1.0000
  F   F14       1.0  0.23621  0.31808  0.86653  1.0000
  C   C73       1.0  0.19305  0.19046  0.97686  1.0000
  N   N7        1.0  0.19193  0.16363  0.08478  1.0000
  H   H30       1.0  0.82783  0.80968  0.88113  1.0000
  C   C74       1.0  0.45891  0.53541  0.89314  1.0000
  C   C75       1.0  0.52288  0.56786  0.85150  1.0000
  C   C76       1.0  0.58800  0.53393  0.90200  1.0000
  H   H31       1.0  0.53918  0.59336  0.82008  1.0000
  C   C77       1.0  0.77827  0.78108  0.00275  1.0000
  C   C78       1.0  0.78671  0.74548  0.93271  1.0000
  C   C79       1.0  0.75879  0.71628  0.93039  1.0000
  F   F15       1.0  0.82386  0.73907  0.86667  1.0000
  F   F16       1.0  0.76982  0.68359  0.85799  1.0000
  C   C80       1.0  0.80824  0.81116  0.99104  1.0000
  N   N8        1.0  0.81030  0.83755  0.10271  1.0000
  H   H32       1.0  0.17260  0.19264  0.86938  1.0000
  C   C81       1.0  0.39639  0.50149  0.93544  1.0000
  C   C82       1.0  0.52332  0.49965  0.89627  1.0000
  H   H33       1.0  0.36426  0.50214  0.96162  1.0000
  C   C83       1.0  0.60738  0.49911  0.91797  1.0000
  C   C84       1.0  0.48008  0.50016  0.89990  1.0000
  H   H34       1.0  0.63981  0.49908  0.93820  1.0000
  C   C85       1.0  0.10698  0.00160  0.06533  1.0000
  C   C86       1.0  0.97991  0.00005  0.09336  1.0000
  H   H35       1.0  0.13929  0.00193  0.04287  1.0000
  C   C87       1.0  0.89618  0.99877  0.06274  1.0000
  C   C88       1.0  0.02313  0.00065  0.09334  1.0000
  H   H36       1.0  0.86394  0.99824  0.03798  1.0000
  C   C89       1.0  0.54033  0.53544  0.39305  1.0000
  C   C90       1.0  0.47668  0.56900  0.35821  1.0000
  C   C91       1.0  0.41130  0.53549  0.40143  1.0000
  C   C92       1.0  0.38661  0.57014  0.40246  1.0000
  C   C93       1.0  0.35002  0.57096  0.31281  1.0000
  C   C94       1.0  0.32534  0.60260  0.31680  1.0000
  C   C95       1.0  0.33591  0.63468  0.41239  1.0000
  C   C96       1.0  0.37266  0.63418  0.50148  1.0000
  C   C97       1.0  0.39730  0.60248  0.49639  1.0000
  H   H37       1.0  0.46052  0.59491  0.33171  1.0000
  H   H38       1.0  0.34172  0.54686  0.23499  1.0000
  H   H39       1.0  0.29740  0.60348  0.24544  1.0000
  H   H40       1.0  0.38162  0.65820  0.57850  1.0000
  H   H41       1.0  0.42468  0.60190  0.57137  1.0000
  C   C98       1.0  0.21791  0.78028  0.51124  1.0000
  C   C99       1.0  0.21068  0.74441  0.44083  1.0000
  C   C100      1.0  0.23940  0.71585  0.43899  1.0000
  F   F17       1.0  0.17374  0.73711  0.37480  1.0000
  F   F18       1.0  0.22831  0.68208  0.37520  1.0000
  C   C101      1.0  0.18746  0.80981  0.49873  1.0000
  N   N9        1.0  0.18843  0.83889  0.59715  1.0000
  H   H42       1.0  0.82707  0.18931  0.35035  1.0000
  C   C102      1.0  0.45371  0.46543  0.39970  1.0000
  C   C103      1.0  0.51759  0.43142  0.37642  1.0000
  C   C104      1.0  0.58327  0.46562  0.41383  1.0000
  H   H43       1.0  0.53349  0.40503  0.35559  1.0000
  C   C105      1.0  0.77711  0.21935  0.46560  1.0000
  C   C106      1.0  0.78507  0.25361  0.38500  1.0000
  C   C107      1.0  0.75871  0.28413  0.39120  1.0000
  F   F19       1.0  0.82020  0.25721  0.30010  1.0000
  F   F20       1.0  0.76978  0.31627  0.31622  1.0000
  C   C108      1.0  0.80626  0.18852  0.45630  1.0000
  N   N10       1.0  0.80630  0.16234  0.56745  1.0000
  H   H44       1.0  0.16513  0.80578  0.39878  1.0000
  C   C109      1.0  0.95430  0.03561  0.59457  1.0000
  C   C110      1.0  0.01783  0.06980  0.62325  1.0000
  C   C111      1.0  0.08325  0.03630  0.57440  1.0000
  C   C112      1.0  0.10850  0.07054  0.57470  1.0000
  C   C113      1.0  0.14580  0.06950  0.65943  1.0000
  C   C114      1.0  0.17163  0.10021  0.66065  1.0000
  C   C115      1.0  0.16151  0.13327  0.57464  1.0000
  C   C116      1.0  0.12392  0.13508  0.49254  1.0000
  C   C117      1.0  0.09807  0.10413  0.49226  1.0000
  H   H45       1.0  0.03378  0.09602  0.64787  1.0000
  H   H46       1.0  0.15370  0.04455  0.73033  1.0000
  H   H47       1.0  0.19998  0.09971  0.72922  1.0000
  H   H48       1.0  0.11509  0.16064  0.42784  1.0000
  H   H49       1.0  0.06991  0.10545  0.42257  1.0000
  C   C118      1.0  0.27697  0.28023  0.52066  1.0000
  C   C119      1.0  0.28579  0.24417  0.58412  1.0000
  C   C120      1.0  0.25996  0.21351  0.56367  1.0000
  F   F21       1.0  0.32118  0.23822  0.66597  1.0000
  F   F22       1.0  0.27264  0.17949  0.61692  1.0000
  C   C121      1.0  0.30571  0.31144  0.54019  1.0000
  N   N11       1.0  0.30686  0.33744  0.42841  1.0000
  H   H50       1.0  0.66758  0.69199  0.62366  1.0000
  C   C122      1.0  0.04135  0.96613  0.59040  1.0000
  C   C123      1.0  0.97801  0.93196  0.62207  1.0000
  C   C124      1.0  0.91218  0.96537  0.58247  1.0000
  H   H51       1.0  0.96226  0.90575  0.64631  1.0000
  C   C125      1.0  0.71810  0.72037  0.50753  1.0000
  C   C126      1.0  0.71120  0.75522  0.58832  1.0000
  C   C127      1.0  0.73998  0.78368  0.59615  1.0000
  F   F23       1.0  0.67476  0.76184  0.65919  1.0000
  F   F24       1.0  0.73115  0.81526  0.68301  1.0000
  C   C128      1.0  0.68817  0.69022  0.51687  1.0000
  N   N12       1.0  0.68776  0.66314  0.40782  1.0000
  H   H52       1.0  0.32468  0.31122  0.65284  1.0000
  C   C129      1.0  0.95497  0.96542  0.59587  1.0000
  C   C130      1.0  0.01921  0.93232  0.61924  1.0000
  C   C131      1.0  0.08401  0.96672  0.57174  1.0000
  C   C132      1.0  0.10964  0.93269  0.57074  1.0000
  C   C133      1.0  0.14707  0.93387  0.65445  1.0000
  C   C134      1.0  0.17200  0.90249  0.66014  1.0000
  C   C135      1.0  0.16084  0.86852  0.58057  1.0000
  C   C136      1.0  0.12373  0.86712  0.49448  1.0000
  C   C137      1.0  0.09891  0.89871  0.48902  1.0000
  H   H53       1.0  0.03573  0.90639  0.64117  1.0000
  H   H54       1.0  0.15585  0.95940  0.72158  1.0000
  H   H55       1.0  0.20045  0.90309  0.72811  1.0000
  H   H56       1.0  0.11438  0.84143  0.42994  1.0000
  H   H57       1.0  0.07119  0.89754  0.41640  1.0000
  C   C138      1.0  0.27848  0.72186  0.50601  1.0000
  C   C139      1.0  0.28583  0.75800  0.57475  1.0000
  C   C140      1.0  0.25648  0.78592  0.58128  1.0000
  F   F25       1.0  0.32307  0.76729  0.63358  1.0000
  F   F26       1.0  0.26678  0.81922  0.65018  1.0000
  C   C141      1.0  0.30961  0.69273  0.51045  1.0000
  N   N13       1.0  0.30795  0.66427  0.40852  1.0000
  H   H58       1.0  0.67541  0.31332  0.61154  1.0000
  C   C142      1.0  0.04063  0.03629  0.59292  1.0000
  C   C143      1.0  0.97661  0.06950  0.62339  1.0000
  C   C144      1.0  0.91158  0.03497  0.57768  1.0000
  C   C145      1.0  0.88612  0.06908  0.57170  1.0000
  C   C146      1.0  0.84862  0.06903  0.65405  1.0000
  C   C147      1.0  0.82326  0.10012  0.65006  1.0000
  C   C148      1.0  0.83411  0.13265  0.56165  1.0000
  C   C149      1.0  0.87167  0.13320  0.47998  1.0000
  C   C150      1.0  0.89693  0.10189  0.48432  1.0000
  H   H59       1.0  0.96019  0.09549  0.64729  1.0000
  H   H60       1.0  0.84013  0.04466  0.72748  1.0000
  H   H61       1.0  0.79473  0.10028  0.71667  1.0000
  H   H62       1.0  0.88099  0.15805  0.41148  1.0000
  H   H63       1.0  0.92502  0.10228  0.41478  1.0000
  C   C151      1.0  0.72207  0.28212  0.47931  1.0000
  C   C152      1.0  0.71397  0.24766  0.55818  1.0000
  C   C153      1.0  0.74017  0.21707  0.55127  1.0000
  F   F27       1.0  0.67874  0.24378  0.64177  1.0000
  F   F28       1.0  0.72913  0.18481  0.62528  1.0000
  C   C154      1.0  0.69344  0.31338  0.49681  1.0000
  N   N14       1.0  0.69080  0.33937  0.38538  1.0000
  H   H64       1.0  0.33309  0.69672  0.60588  1.0000
  C   C155      1.0  0.54043  0.46523  0.39905  1.0000
  C   C156      1.0  0.47635  0.43149  0.37830  1.0000
  C   C157      1.0  0.41087  0.46597  0.41360  1.0000
  H   H65       1.0  0.46015  0.40515  0.36065  1.0000
  C   C158      1.0  0.22230  0.21771  0.48396  1.0000
  C   C159      1.0  0.21358  0.25355  0.41992  1.0000
  C   C160      1.0  0.23944  0.28417  0.43862  1.0000
  F   F29       1.0  0.17771  0.25907  0.34173  1.0000
  F   F30       1.0  0.22640  0.31789  0.38332  1.0000
  C   C161      1.0  0.19224  0.18766  0.46939  1.0000
  N   N15       1.0  0.19027  0.16216  0.58306  1.0000
  H   H66       1.0  0.82753  0.80804  0.39366  1.0000
  C   C162      1.0  0.45406  0.53550  0.38815  1.0000
  C   C163      1.0  0.51789  0.56897  0.36072  1.0000
  C   C164      1.0  0.58300  0.53532  0.41185  1.0000
  H   H67       1.0  0.53418  0.59488  0.33606  1.0000
  C   C165      1.0  0.77692  0.78022  0.51069  1.0000
  C   C166      1.0  0.78324  0.74587  0.42515  1.0000
  C   C167      1.0  0.75549  0.71651  0.42568  1.0000
  F   F31       1.0  0.81828  0.74090  0.34126  1.0000
  F   F32       1.0  0.76574  0.68386  0.34985  1.0000
  C   C168      1.0  0.80686  0.81026  0.49990  1.0000
  N   N16       1.0  0.80742  0.83787  0.60645  1.0000
  H   H68       1.0  0.17238  0.18869  0.35979  1.0000
  C   C169      1.0  0.39132  0.50099  0.41648  1.0000
  C   C170      1.0  0.51879  0.50034  0.39766  1.0000
  H   H69       1.0  0.35888  0.50151  0.43544  1.0000
  C   C171      1.0  0.60270  0.50061  0.42566  1.0000
  C   C172      1.0  0.47548  0.50042  0.39625  1.0000
  H   H70       1.0  0.63502  0.50081  0.44870  1.0000
  C   C173      1.0  0.10316  0.00168  0.55919  1.0000
  C   C174      1.0  0.97618  0.00067  0.59232  1.0000
  H   H71       1.0  0.13540  0.00197  0.53551  1.0000
  C   C175      1.0  0.89221  0.99996  0.56839  1.0000
  C   C176      1.0  0.01942  0.00103  0.59041  1.0000
  H   H72       1.0  0.85982  0.99958  0.54704  1.0000
  C   C177      1.0  0.11684  0.87126  0.98323  1.0000
  C   C178      1.0  0.15390  0.86448  0.05684  1.0000
  C  Sn1       1.0  0.17131  0.89389  0.14940  1.0000
  C  Sn2       1.0  0.15028  0.92850  0.16843  1.0000
  C   C179      1.0  0.11234  0.93281  0.09439  1.0000
  C   C180      1.0  0.09520  0.90321  0.00199  1.0000
  H   H73       1.0  0.10357  0.84836  0.91181  1.0000
  O  Te1       1.0  0.20924  0.88882  0.22207  1.0000
  O  Te2       1.0  0.16697  0.95834  0.26033  1.0000
  H   H74       1.0  0.06669  0.90895  0.94509  1.0000
  Mg  Mg1       1.0  0.21943  0.93779  0.33553  1.0000
  C   C181      1.0  0.61276  0.63034  0.51196  1.0000
  C   C182      1.0  0.65114  0.63451  0.44306  1.0000
  C  Sn3       1.0  0.66823  0.60528  0.34886  1.0000
  C  Sn4       1.0  0.64641  0.57129  0.32333  1.0000
  C   C183      1.0  0.60803  0.56741  0.39268  1.0000
  C   C184      1.0  0.59122  0.59683  0.48679  1.0000
  H   H75       1.0  0.59974  0.65311  0.58469  1.0000
  O  Te3       1.0  0.70661  0.60991  0.28098  1.0000
  O  Te4       1.0  0.66277  0.54163  0.22965  1.0000
  H   H76       1.0  0.56149  0.59360  0.54002  1.0000
  Mg  Mg2       1.0  0.71608  0.56142  0.16270  1.0000
  C   C185      1.0  0.67435  0.58944  0.81502  1.0000
  C   C186      1.0  0.66682  0.62526  0.88220  1.0000
  C  Sn5       1.0  0.63141  0.63224  0.97131  1.0000
  C  Sn6       1.0  0.60307  0.60276  0.99340  1.0000
  C   C187      1.0  0.61090  0.56702  0.92580  1.0000
  C   C188      1.0  0.64642  0.56034  0.83680  1.0000
  H   H77       1.0  0.70184  0.58426  0.74623  1.0000
  O  Te5       1.0  0.62349  0.66602  0.03755  1.0000
  O  Te6       1.0  0.56658  0.60678  0.08198  1.0000
  H   H78       1.0  0.65225  0.53260  0.78489  1.0000
  Mg  Mg3       1.0  0.57055  0.66057  0.14850  1.0000
  C   C189      1.0  0.84039  0.92789  0.68536  1.0000
  C   C190      1.0  0.87870  0.93154  0.61526  1.0000
  C  Sn7       1.0  0.89537  0.90191  0.52219  1.0000
  C  Sn8       1.0  0.87319  0.86804  0.49904  1.0000
  C   C191      1.0  0.83487  0.86468  0.56957  1.0000
  C   C192      1.0  0.81848  0.89450  0.66253  1.0000
  H   H79       1.0  0.82770  0.95096  0.75720  1.0000
  O  Te7       1.0  0.93369  0.90602  0.45308  1.0000
  O  Te8       1.0  0.88912  0.83800  0.40653  1.0000
  H   H80       1.0  0.78881  0.89167  0.71669  1.0000
  Mg  Mg4       1.0  0.94252  0.85714  0.33716  1.0000
  C   C193      1.0  0.34342  0.57453  0.82938  1.0000
  C   C194      1.0  0.38294  0.57047  0.88769  1.0000
  C  Sn9       1.0  0.40168  0.59993  0.97525  1.0000
  C  Sn10      1.0  0.37952  0.63185  0.00484  1.0000
  C   C195      1.0  0.34086  0.63781  0.94609  1.0000
  C   C196      1.0  0.32240  0.60816  0.85856  1.0000
  H   H81       1.0  0.32913  0.55159  0.76173  1.0000
  O  Te9       1.0  0.44031  0.59322  0.03258  1.0000
  O  Te10      1.0  0.39753  0.66174  0.09206  1.0000
  H   H82       1.0  0.29179  0.61130  0.81352  1.0000
  Mg  Mg5       1.0  0.45190  0.64203  0.14517  1.0000
  C   C197      1.0  0.33855  0.42631  0.32542  1.0000
  C   C198      1.0  0.37485  0.43329  0.40936  1.0000
  C  Sn11      1.0  0.39230  0.40542  0.50836  1.0000
  C  Sn12      1.0  0.37300  0.36992  0.52331  1.0000
  C   C199      1.0  0.33671  0.36320  0.43874  1.0000
  C   C200      1.0  0.31950  0.39130  0.34006  1.0000
  H   H83       1.0  0.32525  0.44804  0.24899  1.0000
  O  Te11      1.0  0.42856  0.41287  0.59142  1.0000
  O  Te12      1.0  0.38979  0.34155  0.62137  1.0000
  H   H84       1.0  0.29141  0.38588  0.27499  1.0000
  Mg  Mg6       1.0  0.43959  0.36522  0.71029  1.0000
  C   C201      1.0  0.38768  0.37210  0.04117  1.0000
  C   C202      1.0  0.34976  0.36896  0.97640  1.0000
  C  Sn13      1.0  0.33127  0.39730  0.88337  1.0000
  C  Sn14      1.0  0.35208  0.43158  0.85482  1.0000
  C   C203      1.0  0.39089  0.43662  0.92005  1.0000
  C   C204      1.0  0.40823  0.40589  0.01301  1.0000
  H   H85       1.0  0.40178  0.35001  0.11301  1.0000
  O  Te13      1.0  0.29250  0.39152  0.81963  1.0000
  O  Te14      1.0  0.33431  0.46037  0.76223  1.0000
  H   H86       1.0  0.43827  0.41002  0.06304  1.0000
  Mg  Mg7       1.0  0.28098  0.43914  0.70131  1.0000
  C   C205      1.0  0.60136  0.38736  0.50066  1.0000
  C   C206      1.0  0.60749  0.42398  0.44304  1.0000
  C  Sn15      1.0  0.64189  0.43261  0.35075  1.0000
  C  Sn16      1.0  0.67063  0.40400  0.31565  1.0000
  C   C207      1.0  0.66420  0.36744  0.37376  1.0000
  C   C208      1.0  0.62968  0.35911  0.46605  1.0000
  H   H87       1.0  0.57464  0.38091  0.57199  1.0000
  O  Te15      1.0  0.64755  0.46934  0.29418  1.0000
  O  Te16      1.0  0.70526  0.41185  0.22364  1.0000
  H   H88       1.0  0.62493  0.33075  0.51056  1.0000
  Mg  Mg8       1.0  0.69952  0.46616  0.17374  1.0000
