data_image0
_chemical_formula_structural       NCHNCHNCHNCHNCHNCHC6H3C6H3NCHNCHNCHNCHNCHNCHC6H3C6H3SnCSn2CSnTe4Mg2SnCSn2CSnTe4Mg2SnCSn2CSnTe4Mg2SnCSn2CSnTe4Mg2SnCSn2CSnTe4Mg2SnCSn2CSnTe4Mg2SnCSn2CSnTe4Mg2SnCSn2CSnTe4Mg2SnCSn2CSnTe4Mg2SnCSn2CSnTe4Mg2SnCSn2CSnTe4Mg2SnCSn2CSnTe4Mg2
_chemical_formula_sum              "N12 C60 H24 Sn48 Te48 Mg24"
_cell_length_a       29.8655
_cell_length_b       29.8224
_cell_length_c       8.18569
_cell_angle_alpha    118.994
_cell_angle_beta     96.5988
_cell_angle_gamma    60.0723

_symmetry_space_group_name_H-M    'P1'
_space_group_IT_number       1

loop_
  _space_group_symop_operation_xyz
  'x, y, z'

loop_
  _atom_site_type_symbol
  _atom_site_label
  _atom_site_symmetry_multiplicity
  _atom_site_fract_x
  _atom_site_fract_y
  _atom_site_fract_z
  _atom_site_occupancy
  N   N1        1.0  0.38164  0.42414  0.72775  1.0000
  C   C1        1.0  0.39816  0.37619  0.73571  1.0000
  H   H1        1.0  0.43963  0.34692  0.73387  1.0000
  N   N2        1.0  0.60997  0.58345  0.76948  1.0000
  C   C2        1.0  0.59392  0.63253  0.76955  1.0000
  H   H2        1.0  0.55249  0.66362  0.77766  1.0000
  N   N3        1.0  0.18953  0.38256  0.73985  1.0000
  C   C3        1.0  0.22211  0.39608  0.71484  1.0000
  H   H3        1.0  0.21025  0.43089  0.67765  1.0000
  N   N4        1.0  0.80877  0.60788  0.70592  1.0000
  C   C4        1.0  0.77420  0.59881  0.74399  1.0000
  H   H4        1.0  0.78375  0.56641  0.79003  1.0000
  N   N5        1.0  0.42164  0.19777  0.77468  1.0000
  C   C5        1.0  0.37352  0.22636  0.75658  1.0000
  H   H5        1.0  0.34652  0.20975  0.73614  1.0000
  N   N6        1.0  0.57726  0.80615  0.71635  1.0000
  C   C6        1.0  0.62662  0.77090  0.70200  1.0000
  H   H6        1.0  0.65705  0.77838  0.67657  1.0000
  C   C7        1.0  0.63035  0.64993  0.75440  1.0000
  C   C8        1.0  0.64584  0.71769  0.71739  1.0000
  C   C9        1.0  0.71889  0.63279  0.73474  1.0000
  C   C10       1.0  0.61140  0.70083  0.73897  1.0000
  C   C11       1.0  0.69938  0.68330  0.71417  1.0000
  C   C12       1.0  0.68430  0.61621  0.75369  1.0000
  H   H7        1.0  0.69807  0.57757  0.77065  1.0000
  H   H8        1.0  0.56975  0.72846  0.74348  1.0000
  H   H9        1.0  0.72692  0.69522  0.69753  1.0000
  C   C13       1.0  0.36314  0.35606  0.74239  1.0000
  C   C14       1.0  0.35185  0.28190  0.75306  1.0000
  C   C15       1.0  0.27736  0.36479  0.73046  1.0000
  C   C16       1.0  0.38382  0.30416  0.75324  1.0000
  C   C17       1.0  0.29892  0.31221  0.74041  1.0000
  C   C18       1.0  0.30958  0.38646  0.73136  1.0000
  H   H10       1.0  0.29434  0.42630  0.71990  1.0000
  H   H11       1.0  0.42523  0.27929  0.75868  1.0000
  H   H12       1.0  0.27336  0.29573  0.73811  1.0000
  N   N7        1.0  0.39144  0.41537  0.20354  1.0000
  C   C19       1.0  0.40417  0.37421  0.24479  1.0000
  H   H13       1.0  0.44199  0.35264  0.28692  1.0000
  N   N8        1.0  0.61825  0.57725  0.25542  1.0000
  C   C20       1.0  0.60070  0.62735  0.26062  1.0000
  H   H14       1.0  0.55861  0.65862  0.27911  1.0000
  N   N9        1.0  0.19120  0.39291  0.26435  1.0000
  C   C21       1.0  0.22605  0.39946  0.21457  1.0000
  H   H15       1.0  0.21645  0.42930  0.15739  1.0000
  N   N10       1.0  0.81113  0.61418  0.21271  1.0000
  C   C22       1.0  0.77911  0.59696  0.21341  1.0000
  H   H16       1.0  0.79182  0.55500  0.21044  1.0000
  N   N11       1.0  0.42089  0.19774  0.27684  1.0000
  C   C23       1.0  0.37280  0.22794  0.26187  1.0000
  H   H17       1.0  0.34474  0.21272  0.24196  1.0000
  N   N12       1.0  0.57612  0.80631  0.21798  1.0000
  C   C24       1.0  0.62563  0.77295  0.20882  1.0000
  H   H18       1.0  0.65507  0.78233  0.18756  1.0000
  C   C25       1.0  0.63553  0.64653  0.24393  1.0000
  C   C26       1.0  0.64680  0.71911  0.22207  1.0000
  C   C27       1.0  0.72290  0.63230  0.21954  1.0000
  C   C28       1.0  0.61421  0.69964  0.24009  1.0000
  C   C29       1.0  0.70078  0.68580  0.21497  1.0000
  C   C30       1.0  0.69015  0.61265  0.23155  1.0000
  H   H19       1.0  0.70602  0.57152  0.23560  1.0000
  H   H20       1.0  0.57215  0.72679  0.24971  1.0000
  H   H21       1.0  0.72677  0.70008  0.20221  1.0000
  C   C31       1.0  0.36823  0.35424  0.24296  1.0000
  C   C32       1.0  0.35290  0.28336  0.25947  1.0000
  C   C33       1.0  0.28118  0.36614  0.22853  1.0000
  C   C34       1.0  0.38642  0.30412  0.26229  1.0000
  C   C35       1.0  0.30032  0.31504  0.24530  1.0000
  C   C36       1.0  0.31554  0.38454  0.22253  1.0000
  H   H22       1.0  0.30226  0.42274  0.20360  1.0000
  H   H23       1.0  0.42711  0.27924  0.27504  1.0000
  H   H24       1.0  0.27325  0.30075  0.24686  1.0000
  C  Sn1       1.0  0.46796  0.43897  0.84382  1.0000
  C   C37       1.0  0.41966  0.45076  0.78272  1.0000
  C  Sn2       1.0  0.40195  0.47868  0.67323  1.0000
  C  Sn3       1.0  0.43318  0.49513  0.62368  1.0000
  C   C38       1.0  0.48145  0.48333  0.68474  1.0000
  C  Sn4       1.0  0.49919  0.45542  0.79427  1.0000
  O  Te1       1.0  0.48488  0.41101  0.95315  1.0000
  O  Te2       1.0  0.35353  0.49001  0.61385  1.0000
  O  Te3       1.0  0.41622  0.52311  0.51427  1.0000
  O  Te4       1.0  0.54759  0.44407  0.85360  1.0000
  Mg  Mg1       1.0  0.34745  0.52905  0.46733  1.0000
  Mg  Mg2       1.0  0.60003  0.24883  0.00004  1.0000
  C  Sn5       1.0  0.59736  0.49308  0.70869  1.0000
  C   C39       1.0  0.58153  0.54679  0.71579  1.0000
  C  Sn6       1.0  0.52833  0.58906  0.75087  1.0000
  C  Sn7       1.0  0.49015  0.57742  0.77958  1.0000
  C   C40       1.0  0.50598  0.52374  0.77250  1.0000
  C  Sn8       1.0  0.55918  0.48144  0.73740  1.0000
  O  Te5       1.0  0.65076  0.45147  0.67343  1.0000
  O  Te6       1.0  0.51347  0.64242  0.75724  1.0000
  O  Te7       1.0  0.43672  0.61909  0.81486  1.0000
  O  Te8       1.0  0.57405  0.42811  0.73105  1.0000
  Mg  Mg3       1.0  0.43597  0.68517  0.80999  1.0000
  Mg  Mg4       1.0  0.65153  0.38535  0.67841  1.0000
  C  Sn9       1.0  0.09468  0.49062  0.85511  1.0000
  C   C41       1.0  0.12762  0.42973  0.79104  1.0000
  C  Sn10      1.0  0.11207  0.38925  0.66966  1.0000
  C  Sn11      1.0  0.06257  0.41005  0.61098  1.0000
  C   C42       1.0  0.02966  0.47090  0.67501  1.0000
  C  Sn12      1.0  0.04518  0.51142  0.79643  1.0000
  O  Te9       1.0  0.11104  0.53028  0.97639  1.0000
  O  Te10      1.0  0.14567  0.32859  0.60754  1.0000
  O  Te11      1.0  0.04623  0.37032  0.48961  1.0000
  O  Te12      1.0  0.01162  0.57204  0.85851  1.0000
  Mg  Mg5       1.0  0.10582  0.29198  0.44343  1.0000
  Mg  Mg6       1.0  0.09775  0.45249  0.02253  1.0000
  C  Sn13      1.0  0.89325  0.51925  0.76867  1.0000
  C   C43       1.0  0.86419  0.57181  0.75987  1.0000
  C  Sn14      1.0  0.88951  0.59365  0.71232  1.0000
  C  Sn15      1.0  0.94503  0.56227  0.67262  1.0000
  C   C44       1.0  0.97406  0.50974  0.68140  1.0000
  C  Sn16      1.0  0.94878  0.48788  0.72897  1.0000
  O  Te13      1.0  0.86712  0.49825  0.81649  1.0000
  O  Te14      1.0  0.85961  0.64630  0.70450  1.0000
  O  Te15      1.0  0.97115  0.58332  0.62478  1.0000
  O  Te16      1.0  0.97864  0.43526  0.73677  1.0000
  Mg  Mg7       1.0  0.91324  0.65698  0.63267  1.0000
  Mg  Mg8       1.0  0.92505  0.42452  0.80848  1.0000
  C  Sn17      1.0  0.00408  0.08480  0.65370  1.0000
  C   C45       1.0  0.44951  0.12971  0.71595  1.0000
  C  Sn18      1.0  0.41558  0.12717  0.81085  1.0000
  C  Sn19      1.0  0.93659  0.07873  0.84433  1.0000
  C   C46       1.0  0.98931  0.03386  0.78213  1.0000
  C  Sn20      1.0  0.02327  0.03636  0.68719  1.0000
  O  Te17      1.0  0.53549  0.08826  0.55913  1.0000
  O  Te18      1.0  0.36300  0.17259  0.87168  1.0000
  O  Te19      1.0  0.90331  0.07531  0.93898  1.0000
  O  Te20      1.0  0.07582  0.99098  0.62641  1.0000
  Mg  Mg9       1.0  0.83492  0.14798  0.99444  1.0000
  Mg  Mg10      1.0  0.10575  0.01556  0.50373  1.0000
  C  Sn21      1.0  0.48199  0.93699  0.72885  1.0000
  C   C47       1.0  0.50454  0.97145  0.76388  1.0000
  C  Sn22      1.0  0.55852  0.94737  0.76056  1.0000
  C  Sn23      1.0  0.59064  0.88758  0.72128  1.0000
  C   C48       1.0  0.56809  0.85314  0.68625  1.0000
  C  Sn24      1.0  0.51411  0.87719  0.68958  1.0000
  O  Te21      1.0  0.42794  0.96198  0.73289  1.0000
  O  Te22      1.0  0.58016  0.98270  0.79608  1.0000
  O  Te23      1.0  0.64473  0.86260  0.71727  1.0000
  O  Te24      1.0  0.49247  0.84189  0.65405  1.0000
  Mg  Mg11      1.0  0.65582  0.92855  0.77462  1.0000
  Mg  Mg12      1.0  0.41682  0.89599  0.67538  1.0000
  C  Sn25      1.0  0.42155  0.52188  0.29577  1.0000
  C   C49       1.0  0.47542  0.49778  0.29641  1.0000
  C  Sn26      1.0  0.50813  0.43701  0.23423  1.0000
  C  Sn27      1.0  0.48655  0.39954  0.16995  1.0000
  C   C50       1.0  0.43271  0.42364  0.16930  1.0000
  C  Sn28      1.0  0.39997  0.48441  0.23149  1.0000
  O  Te25      1.0  0.38960  0.58276  0.35855  1.0000
  O  Te26      1.0  0.56187  0.41394  0.23625  1.0000
  O  Te27      1.0  0.51856  0.33862  0.10715  1.0000
  O  Te28      1.0  0.34627  0.50748  0.22946  1.0000
  Mg  Mg13      1.0  0.58930  0.32817  0.13679  1.0000
  Mg  Mg14      1.0  0.31881  0.59323  0.32879  1.0000
  C  Sn29      1.0  0.51794  0.58913  0.25070  1.0000
  C   C51       1.0  0.56763  0.57481  0.30108  1.0000
  C  Sn30      1.0  0.59789  0.52349  0.31617  1.0000
  C  Sn31      1.0  0.57807  0.48568  0.28003  1.0000
  C   C52       1.0  0.52841  0.50000  0.22965  1.0000
  C  Sn32      1.0  0.49812  0.55132  0.21456  1.0000
  O  Te29      1.0  0.48837  0.64065  0.23646  1.0000
  O  Te30      1.0  0.64745  0.51011  0.36681  1.0000
  O  Te31      1.0  0.60768  0.43413  0.29432  1.0000
  O  Te32      1.0  0.44859  0.56469  0.16392  1.0000
  Mg  Mg15      1.0  0.67290  0.43492  0.36764  1.0000
  Mg  Mg16      1.0  0.42312  0.63986  0.16295  1.0000
  C  Sn33      1.0  0.10082  0.39576  0.15521  1.0000
  C   C53       1.0  0.13515  0.41758  0.20653  1.0000
  C  Sn34      1.0  0.11586  0.47868  0.29173  1.0000
  C  Sn35      1.0  0.06110  0.51882  0.32647  1.0000
  C   C54       1.0  0.02680  0.49700  0.27519  1.0000
  C  Sn36      1.0  0.04606  0.43590  0.18995  1.0000
  O  Te33      1.0  0.12098  0.33451  0.07021  1.0000
  O  Te34      1.0  0.15095  0.49943  0.34172  1.0000
  O  Te35      1.0  0.04097  0.58011  0.41154  1.0000
  O  Te36      1.0  0.01100  0.41514  0.14000  1.0000
  Mg  Mg17      1.0  0.10450  0.58677  0.45405  1.0000
  Mg  Mg18      1.0  0.05741  0.32783  0.02777  1.0000
  C  Sn37      1.0  0.89483  0.53580  0.31322  1.0000
  C   C55       1.0  0.86696  0.58173  0.27038  1.0000
  C  Sn38      1.0  0.89345  0.59457  0.18492  1.0000
  C  Sn39      1.0  0.94896  0.56077  0.14125  1.0000
  C   C56       1.0  0.97680  0.51487  0.18404  1.0000
  C  Sn40      1.0  0.95034  0.50200  0.26954  1.0000
  O  Te37      1.0  0.86753  0.52374  0.39865  1.0000
  O  Te38      1.0  0.86474  0.64072  0.14351  1.0000
  O  Te39      1.0  0.97625  0.57287  0.05576  1.0000
  O  Te40      1.0  0.97902  0.45588  0.31092  1.0000
  Mg  Mg19      1.0  0.91970  0.64011  0.02688  1.0000
  Mg  Mg20      1.0  0.92410  0.45643  0.42745  1.0000
  C  Sn41      1.0  0.41286  0.12112  0.36509  1.0000
  C   C57       1.0  0.43684  0.14498  0.32208  1.0000
  C  Sn42      1.0  0.48720  0.10813  0.21580  1.0000
  C  Sn43      1.0  0.51415  0.04611  0.15105  1.0000
  C   C58       1.0  0.99198  0.02227  0.19403  1.0000
  C  Sn44      1.0  0.43980  0.05910  0.30033  1.0000
  O  Te41      1.0  0.36249  0.15880  0.47153  1.0000
  O  Te42      1.0  0.51037  0.13302  0.17465  1.0000
  O  Te43      1.0  0.56456  0.00844  0.04453  1.0000
  O  Te44      1.0  0.91845  0.03424  0.34146  1.0000
  Mg  Mg21      1.0  0.57959  0.06338  0.02494  1.0000
  Mg  Mg22      1.0  0.34741  0.10383  0.49106  1.0000
  C  Sn45      1.0  0.57629  0.92307  0.20566  1.0000
  C   C59       1.0  0.52623  0.95488  0.17213  1.0000
  C  Sn46      1.0  0.48782  0.94147  0.17523  1.0000
  C  Sn47      1.0  0.49966  0.89533  0.21272  1.0000
  C   C60       1.0  0.54968  0.86356  0.24625  1.0000
  C  Sn48      1.0  0.58813  0.87693  0.24315  1.0000
  O  Te45      1.0  0.61409  0.93723  0.20188  1.0000
  O  Te46      1.0  0.43806  0.97388  0.14123  1.0000
  O  Te47      1.0  0.46181  0.88118  0.21647  1.0000
  O  Te48      1.0  0.63786  0.84456  0.27715  1.0000
  Mg  Mg23      1.0  0.39978  0.93798  0.16163  1.0000
  Mg  Mg24      1.0  0.67616  0.88043  0.25688  1.0000
