data_image0
_chemical_formula_structural       N12C6H6C6N18C6H6C6N6SnCSn2CSnTe4Mg2SnCSn2CSnTe4Mg2SnCSn2CSnTe4Mg2SnCSn2CSnTe4Mg2SnCSn2CSnTe4Mg2SnCSn2CSnTe4Mg2SnCSn2CSnTe4Mg2SnCSn2CSnTe4Mg2SnCSn2CSnTe4Mg2SnCSn2CSnTe4Mg2SnCSn2CSnTe4Mg2SnCSn2CSnTe4Mg2SnCSn2CSnTe4Mg2SnCSn2CSnTe4Mg2SnCSn2CSnTe4Mg2SnCSn2CSnTe4Mg2SnCSn2CSnTe4Mg2SnCSn2CSnTe4Mg2SnCSn2CSnTe4Mg2SnCSn2CSnTe4Mg2SnCSn2CSnTe4Mg2SnCSn2CSnTe4Mg2SnCSn2CSnTe4Mg2SnCSn2CSnTe4Mg2
_chemical_formula_sum              "N36 C72 H12 Sn96 Te96 Mg48"
_cell_length_a       47.4898
_cell_length_b       47.8092
_cell_length_c       8.06706
_cell_angle_alpha    59.7297
_cell_angle_beta     106.008
_cell_angle_gamma    120.182

_symmetry_space_group_name_H-M    'P1'
_space_group_IT_number       1

loop_
  _space_group_symop_operation_xyz
  'x, y, z'

loop_
  _atom_site_type_symbol
  _atom_site_label
  _atom_site_symmetry_multiplicity
  _atom_site_fract_x
  _atom_site_fract_y
  _atom_site_fract_z
  _atom_site_occupancy
  N   N1        1.0  0.14690  0.57474  0.22945  1.0000
  N   N2        1.0  0.43156  0.57152  0.25178  1.0000
  N   N3        1.0  0.42926  0.85551  0.26766  1.0000
  N   N4        1.0  0.85806  0.42582  0.27099  1.0000
  N   N5        1.0  0.57236  0.42885  0.21668  1.0000
  N   N6        1.0  0.57065  0.14477  0.23671  1.0000
  N   N7        1.0  0.01093  0.51662  0.25315  1.0000
  N   N8        1.0  0.48827  0.49310  0.25268  1.0000
  N   N9        1.0  0.50590  0.99037  0.27553  1.0000
  N   N10       1.0  0.99442  0.48431  0.27008  1.0000
  N   N11       1.0  0.51883  0.50982  0.22033  1.0000
  N   N12       1.0  0.49106  0.00630  0.27883  1.0000
  C   C1        1.0  0.16747  0.59949  0.28446  1.0000
  C   C2        1.0  0.40054  0.56145  0.24808  1.0000
  C   C3        1.0  0.44035  0.83904  0.23437  1.0000
  C   C4        1.0  0.83817  0.39948  0.22668  1.0000
  C   C5        1.0  0.60308  0.43691  0.24998  1.0000
  C   C6        1.0  0.56028  0.16666  0.21696  1.0000
  H   H1        1.0  0.15973  0.60984  0.34990  1.0000
  H   H2        1.0  0.38175  0.53591  0.24489  1.0000
  H   H3        1.0  0.46564  0.85110  0.19271  1.0000
  H   H4        1.0  0.84653  0.38712  0.17887  1.0000
  H   H5        1.0  0.62018  0.45968  0.28399  1.0000
  H   H6        1.0  0.53439  0.16105  0.19107  1.0000
  C   C7        1.0  0.35758  0.69847  0.26014  1.0000
  C   C8        1.0  0.30608  0.65530  0.25278  1.0000
  C   C9        1.0  0.35008  0.64881  0.24455  1.0000
  C   C10       1.0  0.64787  0.30054  0.25655  1.0000
  C   C11       1.0  0.69959  0.34356  0.25883  1.0000
  C   C12       1.0  0.65624  0.35141  0.26178  1.0000
  N   N13       1.0  0.37122  0.68032  0.25221  1.0000
  N   N14       1.0  0.32521  0.68699  0.26197  1.0000
  N   N15       1.0  0.31733  0.63537  0.24296  1.0000
  N   N16       1.0  0.63479  0.31973  0.25786  1.0000
  N   N17       1.0  0.68018  0.31110  0.25955  1.0000
  N   N18       1.0  0.68888  0.36468  0.26116  1.0000
  N   N19       1.0  0.14163  0.57598  0.73648  1.0000
  N   N20       1.0  0.42464  0.57076  0.75392  1.0000
  N   N21       1.0  0.43114  0.85464  0.77461  1.0000
  N   N22       1.0  0.85284  0.42707  0.77547  1.0000
  N   N23       1.0  0.56437  0.42583  0.72754  1.0000
  N   N24       1.0  0.57339  0.14425  0.73554  1.0000
  N   N25       1.0  0.00568  0.51453  0.76645  1.0000
  N   N26       1.0  0.47987  0.49025  0.75963  1.0000
  N   N27       1.0  0.51221  0.98903  0.78074  1.0000
  N   N28       1.0  0.98903  0.48463  0.75375  1.0000
  N   N29       1.0  0.51050  0.50659  0.72932  1.0000
  N   N30       1.0  0.49735  0.00544  0.77826  1.0000
  C   C13       1.0  0.16179  0.60457  0.76155  1.0000
  C   C14       1.0  0.39368  0.56141  0.74407  1.0000
  C   C15       1.0  0.44038  0.83761  0.73399  1.0000
  C   C16       1.0  0.83258  0.40276  0.71708  1.0000
  C   C17       1.0  0.59515  0.43415  0.75529  1.0000
  C   C18       1.0  0.56144  0.16486  0.71597  1.0000
  H   H7        1.0  0.15411  0.62056  0.78435  1.0000
  H   H8        1.0  0.37492  0.53650  0.73386  1.0000
  H   H9        1.0  0.46513  0.84922  0.68715  1.0000
  H   H10       1.0  0.84063  0.39250  0.65264  1.0000
  H   H11       1.0  0.61255  0.45674  0.79028  1.0000
  H   H12       1.0  0.53523  0.15784  0.69068  1.0000
  C   C19       1.0  0.35224  0.69857  0.75842  1.0000
  C   C20       1.0  0.30034  0.65579  0.75716  1.0000
  C   C21       1.0  0.34335  0.64800  0.74782  1.0000
  C   C22       1.0  0.64283  0.30008  0.75323  1.0000
  C   C23       1.0  0.69394  0.34376  0.76032  1.0000
  C   C24       1.0  0.64947  0.35016  0.75966  1.0000
  N   N31       1.0  0.36502  0.67964  0.75174  1.0000
  N   N32       1.0  0.32005  0.68800  0.75956  1.0000
  N   N33       1.0  0.31073  0.63479  0.75128  1.0000
  N   N34       1.0  0.62873  0.31856  0.75254  1.0000
  N   N35       1.0  0.67529  0.31149  0.75777  1.0000
  N   N36       1.0  0.68222  0.36394  0.76360  1.0000
  C  Sn1       1.0  0.07047  0.57423  0.17725  1.0000
  C   C25       1.0  0.04821  0.53954  0.19758  1.0000
  C  Sn2       1.0  0.05893  0.51346  0.25566  1.0000
  C  Sn3       1.0  0.09259  0.52222  0.29435  1.0000
  C   C26       1.0  0.11482  0.55688  0.27405  1.0000
  C  Sn4       1.0  0.10413  0.58299  0.21594  1.0000
  O  Te1       1.0  0.05920  0.59987  0.11903  1.0000
  O  Te2       1.0  0.03623  0.47897  0.27491  1.0000
  O  Te3       1.0  0.10384  0.49654  0.35260  1.0000
  O  Te4       1.0  0.12681  0.61746  0.19672  1.0000
  Mg  Mg1       1.0  0.06349  0.45330  0.35823  1.0000
  Mg  Mg2       1.0  0.09958  0.64314  0.11351  1.0000
  C  Sn5       1.0  0.43656  0.50723  0.17918  1.0000
  C   C27       1.0  0.46987  0.51633  0.20522  1.0000
  C  Sn6       1.0  0.49083  0.54167  0.27566  1.0000
  C  Sn7       1.0  0.47824  0.55825  0.32115  1.0000
  C   C28       1.0  0.44494  0.54914  0.29514  1.0000
  C  Sn8       1.0  0.42396  0.52381  0.22467  1.0000
  O  Te5       1.0  0.41605  0.48182  0.10858  1.0000
  O  Te6       1.0  0.52405  0.55034  0.30042  1.0000
  O  Te7       1.0  0.49878  0.58368  0.39179  1.0000
  O  Te8       1.0  0.39076  0.51513  0.19994  1.0000
  Mg  Mg3       1.0  0.54218  0.58652  0.40083  1.0000
  Mg  Mg4       1.0  0.37260  0.47894  0.09964  1.0000
  C  Sn9       1.0  0.43668  0.92188  0.18029  1.0000
  C   C29       1.0  0.44849  0.89810  0.21041  1.0000
  C  Sn10      1.0  0.47981  0.90279  0.28879  1.0000
  C  Sn11      1.0  0.49974  0.93184  0.33821  1.0000
  C   C30       1.0  0.48792  0.95559  0.30812  1.0000
  C  Sn12      1.0  0.45661  0.95093  0.22971  1.0000
  O  Te9       1.0  0.40529  0.91667  0.10177  1.0000
  O  Te10      1.0  0.49109  0.87868  0.31751  1.0000
  O  Te11      1.0  0.53115  0.93703  0.41678  1.0000
  O  Te12      1.0  0.44533  0.97501  0.20102  1.0000
  Mg  Mg5       1.0  0.53556  0.89703  0.42868  1.0000
  Mg  Mg6       1.0  0.40086  0.95668  0.08996  1.0000
  C  Sn13      1.0  0.93756  0.48494  0.31358  1.0000
  C   C31       1.0  0.95752  0.47075  0.31918  1.0000
  C  Sn14      1.0  0.94435  0.44079  0.28274  1.0000
  C  Sn15      1.0  0.91052  0.42470  0.23967  1.0000
  C   C32       1.0  0.89059  0.43889  0.23405  1.0000
  C  Sn16      1.0  0.90374  0.46885  0.27052  1.0000
  O  Te13      1.0  0.95125  0.51491  0.35048  1.0000
  O  Te14      1.0  0.96478  0.42708  0.28923  1.0000
  O  Te15      1.0  0.89684  0.39471  0.20277  1.0000
  O  Te16      1.0  0.88332  0.48257  0.26401  1.0000
  Mg  Mg7       1.0  0.93467  0.38587  0.22848  1.0000
  Mg  Mg8       1.0  0.91341  0.52378  0.32463  1.0000
  C  Sn17      1.0  0.51762  0.44283  0.33273  1.0000
  C   C33       1.0  0.53121  0.47967  0.27999  1.0000
  C  Sn18      1.0  0.55918  0.50365  0.17078  1.0000
  C  Sn19      1.0  0.57387  0.49053  0.11296  1.0000
  C   C34       1.0  0.56028  0.45371  0.16567  1.0000
  C  Sn20      1.0  0.53231  0.42971  0.27492  1.0000
  O  Te17      1.0  0.48964  0.41935  0.44195  1.0000
  O  Te18      1.0  0.57233  0.54036  0.11985  1.0000
  O  Te19      1.0  0.60187  0.51405  0.00367  1.0000
  O  Te20      1.0  0.51916  0.39302  0.32582  1.0000
  Mg  Mg9       1.0  0.61573  0.47916  0.96993  1.0000
  Mg  Mg10      1.0  0.48083  0.37167  0.47564  1.0000
  C  Sn21      1.0  0.55357  0.06321  0.27064  1.0000
  C   C35       1.0  0.52063  0.04071  0.31293  1.0000
  C  Sn22      1.0  0.50033  0.05456  0.30660  1.0000
  C  Sn23      1.0  0.51322  0.09169  0.25684  1.0000
  C   C36       1.0  0.54614  0.11418  0.21455  1.0000
  C  Sn24      1.0  0.56646  0.10034  0.22088  1.0000
  O  Te21      1.0  0.57341  0.04878  0.27785  1.0000
  O  Te22      1.0  0.46749  0.03153  0.34953  1.0000
  O  Te23      1.0  0.49335  0.10611  0.24966  1.0000
  O  Te24      1.0  0.59929  0.12336  0.17796  1.0000
  Mg  Mg11      1.0  0.45023  0.06391  0.31995  1.0000
  Mg  Mg12      1.0  0.61656  0.09101  0.20739  1.0000
  C  Sn25      1.0  0.24133  0.61108  0.17404  1.0000
  C   C37       1.0  0.26592  0.64082  0.20273  1.0000
  C  Sn26      1.0  0.25888  0.65644  0.28327  1.0000
  C  Sn27      1.0  0.22659  0.64201  0.33635  1.0000
  C   C38       1.0  0.20202  0.61228  0.30768  1.0000
  C  Sn28      1.0  0.20904  0.59664  0.22711  1.0000
  O  Te25      1.0  0.24892  0.59589  0.09331  1.0000
  O  Te26      1.0  0.28387  0.68617  0.31050  1.0000
  O  Te27      1.0  0.21901  0.65722  0.41713  1.0000
  O  Te28      1.0  0.18407  0.56693  0.19991  1.0000
  Mg  Mg13      1.0  0.26140  0.69741  0.42576  1.0000
  Mg  Mg14      1.0  0.20652  0.55566  0.08476  1.0000
  C  Sn29      1.0  0.40296  0.64025  0.20631  1.0000
  C   C39       1.0  0.37042  0.63390  0.18936  1.0000
  C  Sn30      1.0  0.34531  0.59988  0.21623  1.0000
  C  Sn31      1.0  0.35289  0.57160  0.26111  1.0000
  C   C40       1.0  0.38541  0.57795  0.27808  1.0000
  C  Sn32      1.0  0.41054  0.61197  0.25119  1.0000
  O  Te29      1.0  0.42767  0.67447  0.17885  1.0000
  O  Te30      1.0  0.31296  0.59418  0.19847  1.0000
  O  Te31      1.0  0.32815  0.53736  0.28856  1.0000
  O  Te32      1.0  0.44287  0.61767  0.26896  1.0000
  Mg  Mg15      1.0  0.28787  0.54289  0.24917  1.0000
  Mg  Mg16      1.0  0.46798  0.66894  0.21839  1.0000
  C  Sn33      1.0  0.42075  0.75279  0.28937  1.0000
  C   C41       1.0  0.38716  0.73276  0.31604  1.0000
  C  Sn34      1.0  0.36818  0.74936  0.29239  1.0000
  C  Sn35      1.0  0.38306  0.78676  0.24088  1.0000
  C   C42       1.0  0.41662  0.80677  0.21420  1.0000
  C  Sn36      1.0  0.43564  0.79019  0.23785  1.0000
  O  Te33      1.0  0.43926  0.73564  0.31376  1.0000
  O  Te34      1.0  0.33465  0.72877  0.31991  1.0000
  O  Te35      1.0  0.36452  0.80390  0.21650  1.0000
  O  Te36      1.0  0.46914  0.81075  0.21033  1.0000
  Mg  Mg17      1.0  0.31978  0.76439  0.26989  1.0000
  Mg  Mg18      1.0  0.48403  0.77517  0.26021  1.0000
  C  Sn37      1.0  0.75585  0.33370  0.29535  1.0000
  C   C43       1.0  0.73879  0.34956  0.30535  1.0000
  C  Sn38      1.0  0.75401  0.38616  0.26097  1.0000
  C  Sn39      1.0  0.78696  0.40735  0.20530  1.0000
  C   C44       1.0  0.80400  0.39150  0.19529  1.0000
  C  Sn40      1.0  0.78880  0.35490  0.23968  1.0000
  O  Te37      1.0  0.74014  0.29707  0.34034  1.0000
  O  Te38      1.0  0.73646  0.40141  0.27208  1.0000
  O  Te39      1.0  0.80265  0.44401  0.16030  1.0000
  O  Te40      1.0  0.80633  0.33965  0.22856  1.0000
  Mg  Mg19      1.0  0.76850  0.45244  0.19668  1.0000
  Mg  Mg20      1.0  0.77430  0.28863  0.30383  1.0000
  C  Sn41      1.0  0.66142  0.40464  0.34800  1.0000
  C   C45       1.0  0.64504  0.37381  0.31686  1.0000
  C  Sn42      1.0  0.61359  0.36486  0.23448  1.0000
  C  Sn43      1.0  0.59821  0.38721  0.18200  1.0000
  C   C46       1.0  0.61460  0.41801  0.21311  1.0000
  C  Sn44      1.0  0.64604  0.42698  0.29552  1.0000
  O  Te41      1.0  0.69284  0.41307  0.43055  1.0000
  O  Te42      1.0  0.59770  0.33390  0.20482  1.0000
  O  Te43      1.0  0.56677  0.37875  0.09940  1.0000
  O  Te44      1.0  0.66194  0.45793  0.32515  1.0000
  Mg  Mg21      1.0  0.55513  0.33378  0.08773  1.0000
  Mg  Mg22      1.0  0.70451  0.45808  0.44213  1.0000
  C  Sn45      1.0  0.62235  0.21279  0.30914  1.0000
  C   C47       1.0  0.58842  0.19833  0.28557  1.0000
  C  Sn46      1.0  0.57248  0.21996  0.22403  1.0000
  C  Sn47      1.0  0.59082  0.25681  0.18512  1.0000
  C   C48       1.0  0.62472  0.27125  0.20865  1.0000
  C  Sn48      1.0  0.64069  0.24964  0.27022  1.0000
  O  Te45      1.0  0.63777  0.19067  0.37079  1.0000
  O  Te46      1.0  0.53854  0.20489  0.20158  1.0000
  O  Te47      1.0  0.57536  0.27893  0.12343  1.0000
  O  Te48      1.0  0.67460  0.26469  0.29264  1.0000
  Mg  Mg23      1.0  0.52868  0.24597  0.11423  1.0000
  Mg  Mg24      1.0  0.68449  0.22365  0.37988  1.0000
  C  Sn49      1.0  0.06306  0.50922  0.77966  1.0000
  C   C49       1.0  0.04303  0.52028  0.80538  1.0000
  C  Sn50      1.0  0.05534  0.55526  0.78410  1.0000
  C  Sn51      1.0  0.08836  0.57972  0.73599  1.0000
  C   C50       1.0  0.10838  0.56866  0.71025  1.0000
  C  Sn52      1.0  0.09608  0.53368  0.73154  1.0000
  O  Te49      1.0  0.05023  0.47412  0.80164  1.0000
  O  Te50      1.0  0.03484  0.56569  0.81061  1.0000
  O  Te51      1.0  0.10118  0.61484  0.71402  1.0000
  O  Te52      1.0  0.11656  0.52325  0.70503  1.0000
  Mg  Mg25      1.0  0.06362  0.61636  0.76480  1.0000
  Mg  Mg26      1.0  0.08780  0.47259  0.75070  1.0000
  C  Sn53      1.0  0.41829  0.50519  0.79611  1.0000
  C   C51       1.0  0.43286  0.53808  0.80541  1.0000
  C  Sn54      1.0  0.46618  0.56025  0.77568  1.0000
  C  Sn55      1.0  0.48533  0.54934  0.73570  1.0000
  C   C52       1.0  0.47076  0.51648  0.72639  1.0000
  C  Sn56      1.0  0.43744  0.49428  0.75614  1.0000
  O  Te53      1.0  0.38494  0.48345  0.82630  1.0000
  O  Te54      1.0  0.48020  0.59301  0.78576  1.0000
  O  Te55      1.0  0.51871  0.57112  0.70551  1.0000
  O  Te56      1.0  0.42342  0.46154  0.74604  1.0000
  Mg  Mg27      1.0  0.52659  0.61328  0.73402  1.0000
  Mg  Mg28      1.0  0.37703  0.44126  0.79765  1.0000
  C  Sn57      1.0  0.44144  0.92184  0.68565  1.0000
  C   C53       1.0  0.45171  0.89658  0.72013  1.0000
  C  Sn58      1.0  0.48258  0.89974  0.80199  1.0000
  C  Sn59      1.0  0.50360  0.92874  0.85052  1.0000
  C   C54       1.0  0.98719  0.95397  0.81607  1.0000
  C  Sn60      1.0  0.95633  0.95084  0.73418  1.0000
  O  Te57      1.0  0.41048  0.91815  0.60370  1.0000
  O  Te58      1.0  0.49232  0.87416  0.83503  1.0000
  O  Te59      1.0  0.02845  0.93241  0.93252  1.0000
  O  Te60      1.0  0.94659  0.97639  0.70117  1.0000
  Mg  Mg29      1.0  0.53676  0.89075  0.94975  1.0000
  Mg  Mg30      1.0  0.90214  0.95982  0.58656  1.0000
  C  Sn61      1.0  0.93343  0.48226  0.83630  1.0000
  C   C55       1.0  0.95252  0.46964  0.81531  1.0000
  C  Sn62      1.0  0.93835  0.44282  0.75261  1.0000
  C  Sn63      1.0  0.90438  0.42832  0.70989  1.0000
  C   C56       1.0  0.88530  0.44094  0.73086  1.0000
  C  Sn64      1.0  0.89945  0.46776  0.79358  1.0000
  O  Te61      1.0  0.94811  0.50909  0.89917  1.0000
  O  Te62      1.0  0.95794  0.43063  0.73279  1.0000
  O  Te63      1.0  0.88970  0.40147  0.64699  1.0000
  O  Te64      1.0  0.87988  0.47995  0.81338  1.0000
  Mg  Mg31      1.0  0.92663  0.39371  0.64242  1.0000
  Mg  Mg32      1.0  0.91118  0.51689  0.90364  1.0000
  C  Sn65      1.0  0.55676  0.50322  0.61367  1.0000
  C   C57       1.0  0.52575  0.48930  0.67642  1.0000
  C  Sn66      1.0  0.50799  0.45223  0.78265  1.0000
  C  Sn67      1.0  0.52150  0.42858  0.82721  1.0000
  C   C58       1.0  0.55249  0.44251  0.76450  1.0000
  C  Sn68      1.0  0.57027  0.47958  0.65823  1.0000
  O  Te65      1.0  0.57408  0.54038  0.50766  1.0000
  O  Te66      1.0  0.47703  0.43894  0.84375  1.0000
  O  Te67      1.0  0.50415  0.39141  0.93330  1.0000
  O  Te68      1.0  0.60121  0.49287  0.59717  1.0000
  Mg  Mg33      1.0  0.46295  0.38627  0.98434  1.0000
  Mg  Mg34      1.0  0.61532  0.54553  0.45666  1.0000
  C  Sn69      1.0  0.51713  0.07821  0.85161  1.0000
  C   C59       1.0  0.54968  0.10200  0.80297  1.0000
  C  Sn70      1.0  0.56626  0.09636  0.71264  1.0000
  C  Sn71      1.0  0.54998  0.06635  0.66993  1.0000
  C   C60       1.0  0.51745  0.04259  0.71853  1.0000
  C  Sn72      1.0  0.50085  0.04820  0.80890  1.0000
  O  Te69      1.0  0.50103  0.08437  0.94184  1.0000
  O  Te70      1.0  0.59879  0.12050  0.66546  1.0000
  O  Te71      1.0  0.56611  0.06021  0.57963  1.0000
  O  Te72      1.0  0.46834  0.02409  0.85604  1.0000
  Mg  Mg35      1.0  0.61030  0.10066  0.54374  1.0000
  Mg  Mg36      1.0  0.45680  0.04391  0.97767  1.0000
  C  Sn73      1.0  0.21673  0.59227  0.81478  1.0000
  C   C61       1.0  0.20015  0.60953  0.81472  1.0000
  C  Sn74      1.0  0.21628  0.64620  0.76922  1.0000
  C  Sn75      1.0  0.24967  0.66604  0.72268  1.0000
  C   C62       1.0  0.26622  0.64878  0.72272  1.0000
  C  Sn76      1.0  0.25011  0.61211  0.76824  1.0000
  O  Te73      1.0  0.20012  0.55558  0.86071  1.0000
  O  Te74      1.0  0.19920  0.66286  0.77018  1.0000
  O  Te75      1.0  0.26628  0.70275  0.67674  1.0000
  O  Te76      1.0  0.26717  0.59545  0.76726  1.0000
  Mg  Mg37      1.0  0.23248  0.71338  0.69760  1.0000
  Mg  Mg38      1.0  0.23392  0.54494  0.83972  1.0000
  C  Sn77      1.0  0.34373  0.58248  0.65971  1.0000
  C   C63       1.0  0.37619  0.58814  0.68532  1.0000
  C  Sn78      1.0  0.39956  0.61217  0.75924  1.0000
  C  Sn79      1.0  0.39029  0.63093  0.80873  1.0000
  C   C64       1.0  0.35785  0.62526  0.78315  1.0000
  C  Sn80      1.0  0.33447  0.60123  0.70920  1.0000
  O  Te77      1.0  0.32078  0.55832  0.58559  1.0000
  O  Te78      1.0  0.43186  0.61739  0.78349  1.0000
  O  Te79      1.0  0.41328  0.65510  0.88290  1.0000
  O  Te80      1.0  0.30219  0.59601  0.68498  1.0000
  Mg  Mg39      1.0  0.45422  0.65307  0.88965  1.0000
  Mg  Mg40      1.0  0.27981  0.56033  0.57893  1.0000
  C  Sn81      1.0  0.38003  0.77520  0.83951  1.0000
  C   C65       1.0  0.41341  0.79412  0.80605  1.0000
  C  Sn82      1.0  0.42772  0.78386  0.72967  1.0000
  C  Sn83      1.0  0.40824  0.75409  0.68572  1.0000
  C   C66       1.0  0.37487  0.73519  0.71915  1.0000
  C  Sn84      1.0  0.36055  0.74542  0.79555  1.0000
  O  Te81      1.0  0.36625  0.78592  0.91595  1.0000
  O  Te82      1.0  0.46115  0.80319  0.69753  1.0000
  O  Te83      1.0  0.42205  0.74337  0.60923  1.0000
  O  Te84      1.0  0.32714  0.72612  0.82766  1.0000
  Mg  Mg41      1.0  0.46864  0.77820  0.59109  1.0000
  Mg  Mg42      1.0  0.31962  0.75109  0.93400  1.0000
  C  Sn85      1.0  0.75104  0.33564  0.79169  1.0000
  C   C67       1.0  0.73349  0.35017  0.81011  1.0000
  C  Sn86      1.0  0.74803  0.38647  0.77090  1.0000
  C  Sn87      1.0  0.78079  0.40873  0.71192  1.0000
  C   C68       1.0  0.79831  0.39420  0.69350  1.0000
  C  Sn88      1.0  0.78379  0.35790  0.73272  1.0000
  O  Te85      1.0  0.73601  0.29928  0.83163  1.0000
  O  Te86      1.0  0.73000  0.40038  0.79039  1.0000
  O  Te87      1.0  0.79580  0.44512  0.67198  1.0000
  O  Te88      1.0  0.80180  0.34399  0.71321  1.0000
  Mg  Mg43      1.0  0.76119  0.45157  0.71938  1.0000
  Mg  Mg44      1.0  0.77063  0.29282  0.78409  1.0000
  C  Sn89      1.0  0.65356  0.40246  0.84721  1.0000
  C   C69       1.0  0.63744  0.37215  0.81152  1.0000
  C  Sn90      1.0  0.60619  0.36356  0.72643  1.0000
  C  Sn91      1.0  0.59074  0.38575  0.67585  1.0000
  C   C70       1.0  0.60686  0.41605  0.71151  1.0000
  C  Sn92      1.0  0.63811  0.42465  0.79662  1.0000
  O  Te89      1.0  0.68479  0.41054  0.93239  1.0000
  O  Te90      1.0  0.59056  0.33311  0.69223  1.0000
  O  Te91      1.0  0.55949  0.37766  0.59061  1.0000
  O  Te92      1.0  0.65374  0.45509  0.83080  1.0000
  Mg  Mg45      1.0  0.54818  0.33333  0.57293  1.0000
  Mg  Mg46      1.0  0.69612  0.45490  0.94999  1.0000
  C  Sn93      1.0  0.57108  0.23241  0.65678  1.0000
  C   C71       1.0  0.58081  0.20822  0.66957  1.0000
  C  Sn94      1.0  0.61202  0.21094  0.73963  1.0000
  C  Sn95      1.0  0.63396  0.23840  0.79824  1.0000
  C   C72       1.0  0.62423  0.26257  0.78546  1.0000
  C  Sn96      1.0  0.59302  0.25988  0.71538  1.0000
  O  Te93      1.0  0.53976  0.22919  0.58631  1.0000
  O  Te94      1.0  0.62120  0.18644  0.75102  1.0000
  O  Te95      1.0  0.66530  0.24161  0.86874  1.0000
  O  Te96      1.0  0.58384  0.28435  0.70401  1.0000
  Mg  Mg47      1.0  0.66644  0.20184  0.85687  1.0000
  Mg  Mg48      1.0  0.53859  0.26896  0.59829  1.0000
