data_image0
_chemical_formula_structural       C24H4N2C8H4C10H4C4H4C2H8S4N2H2C24H4N2C8H4C10H4C4H4C2H8S4N2H2C2Sn2C2HTe2HMgC2Sn2C2HTe2HMgC2Sn2C2HTe2HMgC2Sn2C2HTe2HMg
_chemical_formula_sum              "C112 H60 N8 S8 Sn8 Te8 Mg4"
_cell_length_a       24.6434
_cell_length_b       24.77
_cell_length_c       9.01937
_cell_angle_alpha    63.3832
_cell_angle_beta     93.0311
_cell_angle_gamma    81.1717

_symmetry_space_group_name_H-M    'P1'
_space_group_IT_number       1

loop_
  _space_group_symop_operation_xyz
  'x, y, z'

loop_
  _atom_site_type_symbol
  _atom_site_label
  _atom_site_symmetry_multiplicity
  _atom_site_fract_x
  _atom_site_fract_y
  _atom_site_fract_z
  _atom_site_occupancy
  C   C1        1.0  0.48486  0.48892  0.20740  1.0000
  C   C2        1.0  0.01603  0.00778  0.23338  1.0000
  C   C3        1.0  0.50667  0.53164  0.24942  1.0000
  C   C4        1.0  0.96813  0.97971  0.25371  1.0000
  C   C5        1.0  0.56303  0.57566  0.36316  1.0000
  C   C6        1.0  0.90835  0.91082  0.29463  1.0000
  C   C7        1.0  0.42733  0.44662  0.09132  1.0000
  C   C8        1.0  0.07058  0.08307  0.13990  1.0000
  C   C9        1.0  0.55590  0.52288  0.34793  1.0000
  C   C10       1.0  0.96371  0.91915  0.29877  1.0000
  C   C11       1.0  0.43710  0.49968  0.10038  1.0000
  C   C12       1.0  0.01703  0.06998  0.13972  1.0000
  C   C13       1.0  0.51966  0.62603  0.27677  1.0000
  C   C14       1.0  0.86934  0.96464  0.24736  1.0000
  C   C15       1.0  0.46732  0.39400  0.19051  1.0000
  C   C16       1.0  0.11195  0.03153  0.23437  1.0000
  C   C17       1.0  0.60522  0.95496  0.19777  1.0000
  C   C18       1.0  0.54339  0.89586  0.20096  1.0000
  C   C19       1.0  0.37282  0.06509  0.27685  1.0000
  C   C20       1.0  0.43465  0.12507  0.27007  1.0000
  C   C21       1.0  0.62937  0.91257  0.14030  1.0000
  C   C22       1.0  0.59195  0.87635  0.14349  1.0000
  C   C23       1.0  0.34470  0.11601  0.29675  1.0000
  C   C24       1.0  0.38219  0.15226  0.29345  1.0000
  H   H1        1.0  0.66927  0.91171  0.09609  1.0000
  H   H2        1.0  0.59627  0.84096  0.10339  1.0000
  H   H3        1.0  0.30168  0.12217  0.31611  1.0000
  H   H4        1.0  0.37531  0.19300  0.31140  1.0000
  N   N1        1.0  0.54630  0.06013  0.25211  1.0000
  N   N2        1.0  0.43423  0.95396  0.25223  1.0000
  C   C25       1.0  0.60276  0.04497  0.25707  1.0000
  C   C26       1.0  0.44460  0.89797  0.25108  1.0000
  C   C27       1.0  0.37957  0.96330  0.27558  1.0000
  C   C28       1.0  0.53743  0.11303  0.27008  1.0000
  C   C29       1.0  0.63048  0.08725  0.28949  1.0000
  C   C30       1.0  0.39570  0.87013  0.28051  1.0000
  C   C31       1.0  0.35490  0.91143  0.29201  1.0000
  C   C32       1.0  0.58984  0.13099  0.29011  1.0000
  H   H5        1.0  0.67478  0.08356  0.31169  1.0000
  H   H6        1.0  0.39289  0.82545  0.29119  1.0000
  H   H7        1.0  0.31242  0.90729  0.30928  1.0000
  H   H8        1.0  0.59544  0.17055  0.30620  1.0000
  C   C33       1.0  0.63071  0.99784  0.22411  1.0000
  C   C34       1.0  0.49544  0.87005  0.22597  1.0000
  C   C35       1.0  0.34973  0.01612  0.27955  1.0000
  C   C36       1.0  0.48469  0.14667  0.26548  1.0000
  C   C37       1.0  0.50140  0.80850  0.23352  1.0000
  C   C38       1.0  0.28858  0.02214  0.27854  1.0000
  C   C39       1.0  0.54647  0.76113  0.33702  1.0000
  C   C40       1.0  0.25210  0.07133  0.14464  1.0000
  C   C41       1.0  0.26488  0.97792  0.40438  1.0000
  C   C42       1.0  0.46269  0.79386  0.14413  1.0000
  H   H9        1.0  0.57611  0.77064  0.41140  1.0000
  H   H10       1.0  0.26908  0.10665  0.04622  1.0000
  H   H11       1.0  0.29225  0.94094  0.51201  1.0000
  H   H12       1.0  0.42865  0.82975  0.05871  1.0000
  C   C43       1.0  0.55202  0.70205  0.35288  1.0000
  C   C44       1.0  0.19515  0.07429  0.13186  1.0000
  C   C45       1.0  0.20783  0.98105  0.39336  1.0000
  C   C46       1.0  0.46858  0.73512  0.15745  1.0000
  H   H13       1.0  0.58605  0.66630  0.43963  1.0000
  H   H14       1.0  0.16849  0.11108  0.02206  1.0000
  H   H15       1.0  0.19086  0.94662  0.49445  1.0000
  H   H16       1.0  0.43888  0.72651  0.08075  1.0000
  C   C47       1.0  0.51318  0.68745  0.26272  1.0000
  C   C48       1.0  0.17160  0.02860  0.25489  1.0000
  H   H17       1.0  0.59874  0.57704  0.43642  1.0000
  H   H18       1.0  0.58537  0.47924  0.40754  1.0000
  H   H19       1.0  0.89676  0.86722  0.31989  1.0000
  H   H20       1.0  0.99952  0.88274  0.32827  1.0000
  H   H21       1.0  0.39206  0.44643  0.01423  1.0000
  H   H22       1.0  0.41081  0.54511  0.02986  1.0000
  H   H23       1.0  0.07937  0.12897  0.07328  1.0000
  H   H24       1.0  0.97968  0.10416  0.07085  1.0000
  S   S1        1.0  0.51751  0.41173  0.29599  1.0000
  S   S2        1.0  0.08298  0.96590  0.32399  1.0000
  S   S3        1.0  0.46934  0.60643  0.17710  1.0000
  S   S4        1.0  0.90264  0.02551  0.21215  1.0000
  N   N3        1.0  0.55267  0.94442  0.22807  1.0000
  N   N4        1.0  0.42714  0.07220  0.26265  1.0000
  H   H25       1.0  0.52422  0.96941  0.26330  1.0000
  H   H26       1.0  0.45743  0.04329  0.24513  1.0000
  C   C49       1.0  0.49662  0.47218  0.73139  1.0000
  C   C50       1.0  0.03371  0.01564  0.75505  1.0000
  C   C51       1.0  0.51849  0.51516  0.77171  1.0000
  C   C52       1.0  0.98476  0.99194  0.74102  1.0000
  C   C53       1.0  0.57574  0.55796  0.88680  1.0000
  C   C54       1.0  0.92370  0.94011  0.67409  1.0000
  C   C55       1.0  0.43959  0.42734  0.62282  1.0000
  C   C56       1.0  0.09303  0.08311  0.73623  1.0000
  C   C57       1.0  0.56747  0.50539  0.87251  1.0000
  C   C58       1.0  0.97858  0.94945  0.68336  1.0000
  C   C59       1.0  0.44780  0.48099  0.63127  1.0000
  C   C60       1.0  0.03763  0.07511  0.72410  1.0000
  C   C61       1.0  0.53343  0.60919  0.79761  1.0000
  C   C62       1.0  0.88710  0.97469  0.72589  1.0000
  C   C63       1.0  0.48175  0.37624  0.71603  1.0000
  C   C64       1.0  0.13201  0.02985  0.77923  1.0000
  C   C65       1.0  0.62791  0.93498  0.73388  1.0000
  C   C66       1.0  0.56554  0.87549  0.73682  1.0000
  C   C67       1.0  0.39419  0.04425  0.81472  1.0000
  C   C68       1.0  0.45536  0.10397  0.81199  1.0000
  C   C69       1.0  0.65717  0.87973  0.73692  1.0000
  C   C70       1.0  0.61935  0.84459  0.73434  1.0000
  C   C71       1.0  0.36732  0.09069  0.85431  1.0000
  C   C72       1.0  0.40449  0.12692  0.85307  1.0000
  H   H27       1.0  0.70154  0.86832  0.74101  1.0000
  H   H28       1.0  0.62763  0.80103  0.73090  1.0000
  H   H29       1.0  0.32540  0.09401  0.88391  1.0000
  H   H30       1.0  0.39825  0.16503  0.88241  1.0000
  N   N5        1.0  0.56589  0.04419  0.77005  1.0000
  N   N6        1.0  0.45389  0.93889  0.76100  1.0000
  C   C73       1.0  0.61951  0.03687  0.73648  1.0000
  C   C74       1.0  0.46311  0.88536  0.74659  1.0000
  C   C75       1.0  0.39836  0.95015  0.77420  1.0000
  C   C76       1.0  0.55455  0.10121  0.76542  1.0000
  C   C77       1.0  0.64190  0.09182  0.70295  1.0000
  C   C78       1.0  0.41179  0.86256  0.74880  1.0000
  C   C79       1.0  0.37143  0.90343  0.76337  1.0000
  C   C80       1.0  0.60174  0.13153  0.72225  1.0000
  H   H31       1.0  0.68192  0.09971  0.66353  1.0000
  H   H32       1.0  0.40717  0.82077  0.74342  1.0000
  H   H33       1.0  0.32811  0.90135  0.77141  1.0000
  H   H34       1.0  0.60312  0.17766  0.70312  1.0000
  C   C81       1.0  0.65056  0.98436  0.73230  1.0000
  C   C82       1.0  0.51561  0.85352  0.74301  1.0000
  C   C83       1.0  0.37003  0.99878  0.79941  1.0000
  C   C84       1.0  0.50354  0.12933  0.78932  1.0000
  C   C85       1.0  0.30912  0.00584  0.80197  1.0000
  C   C86       1.0  0.49774  0.19153  0.77752  1.0000
  C   C87       1.0  0.27403  0.06074  0.68357  1.0000
  C   C88       1.0  0.53628  0.20655  0.86663  1.0000
  C   C89       1.0  0.28469  0.95959  0.91815  1.0000
  C   C90       1.0  0.45358  0.23908  0.66924  1.0000
  H   H35       1.0  0.29258  0.09653  0.59239  1.0000
  H   H36       1.0  0.56972  0.17050  0.95543  1.0000
  H   H37       1.0  0.31140  0.91805  0.01466  1.0000
  H   H38       1.0  0.42430  0.22921  0.59478  1.0000
  C   C91       1.0  0.21679  0.06861  0.67792  1.0000
  C   C92       1.0  0.53112  0.26610  0.84711  1.0000
  C   C93       1.0  0.22738  0.96752  0.91412  1.0000
  C   C94       1.0  0.44850  0.29872  0.64866  1.0000
  H   H39       1.0  0.19029  0.11011  0.58020  1.0000
  H   H40       1.0  0.56089  0.27548  0.92174  1.0000
  H   H41       1.0  0.20928  0.93196  0.00816  1.0000
  H   H42       1.0  0.41503  0.33443  0.55904  1.0000
  C   C95       1.0  0.19229  0.02181  0.79259  1.0000
  C   C96       1.0  0.48733  0.31393  0.73710  1.0000
  H   H43       1.0  0.61161  0.55898  0.96004  1.0000
  H   H44       1.0  0.59592  0.46110  0.93420  1.0000
  H   H45       1.0  0.91085  0.90920  0.62984  1.0000
  H   H46       1.0  0.01257  0.92797  0.64338  1.0000
  H   H47       1.0  0.40400  0.42580  0.54965  1.0000
  H   H48       1.0  0.41953  0.52528  0.56550  1.0000
  H   H49       1.0  0.10474  0.12637  0.71509  1.0000
  H   H50       1.0  0.00122  0.11161  0.68842  1.0000
  S   S5        1.0  0.53214  0.39629  0.81408  1.0000
  S   S6        1.0  0.09950  0.96917  0.80524  1.0000
  S   S7        1.0  0.48302  0.59084  0.69483  1.0000
  S   S8        1.0  0.92191  0.01881  0.78866  1.0000
  N   N7        1.0  0.57261  0.93036  0.73339  1.0000
  N   N8        1.0  0.44767  0.05318  0.79377  1.0000
  H   H51       1.0  0.54164  0.96104  0.74157  1.0000
  H   H52       1.0  0.47780  0.02567  0.77097  1.0000
  C   C97       1.0  0.48134  0.73727  0.64343  1.0000
  C   C98       1.0  0.51841  0.68270  0.75063  1.0000
  C  Sn1       1.0  0.55608  0.68130  0.87427  1.0000
  C  Sn2       1.0  0.55653  0.73560  0.89061  1.0000
  C   C99       1.0  0.51925  0.78995  0.78282  1.0000
  C   C100      1.0  0.48175  0.79085  0.65950  1.0000
  H   H53       1.0  0.45231  0.73796  0.54807  1.0000
  O  Te1       1.0  0.59284  0.62639  0.98028  1.0000
  O  Te2       1.0  0.54812  0.90558  0.01313  1.0000
  H   H54       1.0  0.45303  0.83309  0.57659  1.0000
  Mg  Mg1       1.0  0.59010  0.81949  0.12773  1.0000
  C   C101      1.0  0.72998  0.04799  0.13065  1.0000
  C   C102      1.0  0.69681  0.00366  0.18838  1.0000
  C  Sn3       1.0  0.56686  0.94125  0.28098  1.0000
  C  Sn4       1.0  0.62546  0.92303  0.31627  1.0000
  C   C103      1.0  0.81253  0.96774  0.25805  1.0000
  C   C104      1.0  0.78778  0.03006  0.16545  1.0000
  H   H55       1.0  0.71083  0.09621  0.05908  1.0000
  O  Te3       1.0  0.53311  0.89756  0.33765  1.0000
  O  Te4       1.0  0.65084  0.86097  0.40859  1.0000
  H   H56       1.0  0.81346  0.06438  0.12086  1.0000
  Mg  Mg2       1.0  0.58718  0.81862  0.45853  1.0000
  C   C105      1.0  0.90969  0.99905  0.85276  1.0000
  C   C106      1.0  0.87224  0.98722  0.75445  1.0000
  C  Sn5       1.0  0.89093  0.96750  0.63986  1.0000
  C  Sn6       1.0  0.94819  0.95951  0.62372  1.0000
  C   C107      1.0  0.98532  0.97143  0.72274  1.0000
  C   C108      1.0  0.96617  0.99116  0.83696  1.0000
  H   H57       1.0  0.89488  0.01428  0.94121  1.0000
  O  Te5       1.0  0.85296  0.95591  0.54258  1.0000
  O  Te6       1.0  0.96798  0.93983  0.51023  1.0000
  H   H58       1.0  0.99517  0.00028  0.91314  1.0000
  Mg  Mg3       1.0  0.74579  0.92995  0.40551  1.0000
  C   C109      1.0  0.43372  0.27590  0.10356  1.0000
  C   C110      1.0  0.47107  0.22195  0.21321  1.0000
  C  Sn7       1.0  0.50850  0.22209  0.33485  1.0000
  C  Sn8       1.0  0.50844  0.27732  0.34666  1.0000
  C   C111      1.0  0.47088  0.33104  0.23645  1.0000
  C   C112      1.0  0.43361  0.33039  0.11516  1.0000
  H   H59       1.0  0.40486  0.27540  0.00978  1.0000
  O  Te7       1.0  0.54555  0.16779  0.44336  1.0000
  O  Te8       1.0  0.54539  0.27875  0.46710  1.0000
  H   H60       1.0  0.40467  0.37216  0.03036  1.0000
  Mg  Mg4       1.0  0.58792  0.19295  0.58649  1.0000
