data_image0
_chemical_formula_structural       NC3HOHNC3HOHNC3HOHNC3HOHNC3HOHNC3HOHNC3HOHNC3HOHNC3HOHNC3HOHNC3HOHNC3HOHC2Sn2C2HTe2HMgC2Sn2C2HTe2HMgC2Sn2C2HTe2HMgC2Sn2C2HTe2HMgC2Sn2C2HTe2HMgC2Sn2C2HTe2HMgC2Sn2C2HTe2HMgC2Sn2C2HTe2HMgC2Sn2C2HTe2HMgC2Sn2C2HTe2HMgC2Sn2C2HTe2HMgC2Sn2C2HTe2HMgC2Sn2C2HTe2HMgC2Sn2C2HTe2HMgC2Sn2C2HTe2HMgC2Sn2C2HTe2HMgC2Sn2C2HTe2HMgC2Sn2C2HTe2HMg
_chemical_formula_sum              "N12 C108 H60 O12 Sn36 Te36 Mg18"
_cell_length_a       37.4508
_cell_length_b       37.6329
_cell_length_c       8.17716
_cell_angle_alpha    86.9845
_cell_angle_beta     120.145
_cell_angle_gamma    119.952

_symmetry_space_group_name_H-M    'P1'
_space_group_IT_number       1

loop_
  _space_group_symop_operation_xyz
  'x, y, z'

loop_
  _atom_site_type_symbol
  _atom_site_label
  _atom_site_symmetry_multiplicity
  _atom_site_fract_x
  _atom_site_fract_y
  _atom_site_fract_z
  _atom_site_occupancy
  N   N1        1.0  0.77794  0.39990  0.97967  1.0000
  C   C1        1.0  0.75015  0.36059  0.98630  1.0000
  C   C2        1.0  0.70948  0.34776  0.99558  1.0000
  C   C3        1.0  0.69527  0.37711  0.00048  1.0000
  H   H1        1.0  0.75929  0.33739  0.98441  1.0000
  O   O1        1.0  0.72021  0.41563  0.00125  1.0000
  H   H2        1.0  0.76535  0.41887  0.98655  1.0000
  N   N2        1.0  0.59875  0.37847  0.01194  1.0000
  C   C4        1.0  0.63821  0.38944  0.00770  1.0000
  C   C5        1.0  0.65145  0.36104  0.00536  1.0000
  C   C6        1.0  0.62268  0.31734  0.00800  1.0000
  H   H3        1.0  0.66118  0.42184  0.00684  1.0000
  O   O2        1.0  0.58469  0.30381  0.01275  1.0000
  H   H4        1.0  0.58101  0.34671  0.01784  1.0000
  N   N3        1.0  0.62249  0.21919  0.00805  1.0000
  C   C7        1.0  0.61118  0.24773  0.01014  1.0000
  C   C8        1.0  0.63895  0.28930  0.00640  1.0000
  C   C9        1.0  0.68239  0.30393  0.00211  1.0000
  H   H5        1.0  0.57904  0.23842  0.01392  1.0000
  O   O3        1.0  0.69667  0.27938  0.00402  1.0000
  H   H6        1.0  0.65475  0.23306  0.00756  1.0000
  N   N4        1.0  0.22366  0.59910  0.02262  1.0000
  C   C10       1.0  0.25151  0.63893  0.02091  1.0000
  C   C11       1.0  0.29217  0.65241  0.01009  1.0000
  C   C12       1.0  0.30638  0.62327  0.00112  1.0000
  H   H7        1.0  0.24268  0.66204  0.02916  1.0000
  O   O4        1.0  0.28132  0.58444  0.99669  1.0000
  H   H8        1.0  0.23649  0.58064  0.01161  1.0000
  N   N5        1.0  0.40372  0.62341  0.98990  1.0000
  C   C13       1.0  0.36395  0.61168  0.99314  1.0000
  C   C14       1.0  0.35043  0.63981  0.99754  1.0000
  C   C15       1.0  0.37922  0.68375  0.99788  1.0000
  H   H9        1.0  0.34099  0.57899  0.99120  1.0000
  O   O5        1.0  0.41739  0.69779  0.99379  1.0000
  H   H10       1.0  0.42121  0.65541  0.98611  1.0000
  N   N6        1.0  0.37875  0.78152  0.99972  1.0000
  C   C16       1.0  0.39000  0.75303  0.99597  1.0000
  C   C17       1.0  0.36271  0.71149  0.00115  1.0000
  C   C18       1.0  0.31936  0.69654  0.00673  1.0000
  H   H11       1.0  0.42171  0.76235  0.98902  1.0000
  O   O6        1.0  0.30532  0.72108  0.00816  1.0000
  H   H12       1.0  0.34716  0.76776  0.00509  1.0000
  N   N7        1.0  0.77688  0.40224  0.47990  1.0000
  C   C19       1.0  0.74930  0.36246  0.48296  1.0000
  C   C20       1.0  0.70864  0.34881  0.49374  1.0000
  C   C21       1.0  0.69395  0.37760  0.50165  1.0000
  H   H13       1.0  0.75870  0.33964  0.47750  1.0000
  O   O7        1.0  0.71821  0.41630  0.50317  1.0000
  H   H14       1.0  0.76402  0.42077  0.48863  1.0000
  N   N8        1.0  0.59695  0.37686  0.51808  1.0000
  C   C22       1.0  0.63655  0.38859  0.51325  1.0000
  C   C23       1.0  0.65022  0.36068  0.50844  1.0000
  C   C24       1.0  0.62173  0.31664  0.50838  1.0000
  H   H15       1.0  0.65876  0.42108  0.51088  1.0000
  O   O8        1.0  0.58341  0.30228  0.51172  1.0000
  H   H16       1.0  0.57914  0.34470  0.51892  1.0000
  N   N9        1.0  0.62305  0.21931  0.50462  1.0000
  C   C25       1.0  0.61144  0.24755  0.50830  1.0000
  C   C26       1.0  0.63868  0.28929  0.50515  1.0000
  C   C27       1.0  0.68211  0.30477  0.49944  1.0000
  H   H17       1.0  0.57924  0.23779  0.51233  1.0000
  O   O9        1.0  0.69666  0.28061  0.49870  1.0000
  H   H18       1.0  0.65494  0.23352  0.50142  1.0000
  N   N10       1.0  0.22241  0.60000  0.52392  1.0000
  C   C28       1.0  0.25049  0.63958  0.52056  1.0000
  C   C29       1.0  0.29092  0.65250  0.50923  1.0000
  C   C30       1.0  0.30443  0.62293  0.49903  1.0000
  H   H19       1.0  0.24190  0.66293  0.52754  1.0000
  O   O10       1.0  0.27893  0.58417  0.49400  1.0000
  H   H20       1.0  0.23481  0.58106  0.51443  1.0000
  N   N11       1.0  0.40014  0.62143  0.48080  1.0000
  C   C31       1.0  0.36082  0.61041  0.48650  1.0000
  C   C32       1.0  0.34823  0.63903  0.49374  1.0000
  C   C33       1.0  0.37778  0.68303  0.49651  1.0000
  H   H21       1.0  0.33778  0.57801  0.48715  1.0000
  O   O11       1.0  0.41607  0.69668  0.49375  1.0000
  H   H22       1.0  0.41877  0.65367  0.48221  1.0000
  N   N12       1.0  0.37788  0.78104  0.49575  1.0000
  C   C34       1.0  0.38920  0.75251  0.49399  1.0000
  C   C35       1.0  0.36179  0.71112  0.50031  1.0000
  C   C36       1.0  0.31853  0.69653  0.50597  1.0000
  H   H23       1.0  0.42087  0.76154  0.48725  1.0000
  O   O12       1.0  0.30487  0.72138  0.50759  1.0000
  H   H24       1.0  0.34618  0.76730  0.50039  1.0000
  C   C37       1.0  0.01812  0.46956  0.06178  1.0000
  C   C38       1.0  0.04090  0.50714  0.01394  1.0000
  C  Sn1       1.0  0.15972  0.58962  0.96136  1.0000
  C  Sn2       1.0  0.11653  0.57682  0.95677  1.0000
  C   C39       1.0  0.95562  0.48184  0.00502  1.0000
  C   C40       1.0  0.97553  0.45692  0.05737  1.0000
  H   H25       1.0  0.03354  0.45028  0.10239  1.0000
  O  Te1       1.0  0.18293  0.62706  0.91392  1.0000
  O  Te2       1.0  0.09617  0.60136  0.90480  1.0000
  H   H26       1.0  0.95790  0.42784  0.09452  1.0000
  Mg  Mg1       1.0  0.14118  0.64974  0.85231  1.0000
  C   C41       1.0  0.13078  0.59404  0.04825  1.0000
  C   C42       1.0  0.09847  0.55087  0.02017  1.0000
  C  Sn3       1.0  0.10952  0.52145  0.00260  1.0000
  C  Sn4       1.0  0.15376  0.53559  0.01345  1.0000
  C   C43       1.0  0.18586  0.57885  0.04172  1.0000
  C   C44       1.0  0.17444  0.60802  0.05905  1.0000
  H   H27       1.0  0.12196  0.61661  0.06178  1.0000
  O  Te3       1.0  0.21525  0.53578  0.97452  1.0000
  O  Te4       1.0  0.30414  0.56421  0.99642  1.0000
  H   H28       1.0  0.19947  0.64144  0.08093  1.0000
  Mg  Mg2       1.0  0.24780  0.50886  0.95956  1.0000
  C   C45       1.0  0.45366  0.47102  0.95991  1.0000
  C   C46       1.0  0.47514  0.51494  0.99427  1.0000
  C  Sn5       1.0  0.38378  0.48446  0.02957  1.0000
  C  Sn6       1.0  0.40972  0.46692  0.03034  1.0000
  C   C47       1.0  0.52632  0.48027  0.99567  1.0000
  C   C48       1.0  0.47922  0.45369  0.96056  1.0000
  H   H29       1.0  0.41721  0.45044  0.93264  1.0000
  O  Te5       1.0  0.40470  0.52828  0.06370  1.0000
  O  Te6       1.0  0.45680  0.49303  0.06514  1.0000
  H   H30       1.0  0.46258  0.41968  0.93384  1.0000
  Mg  Mg3       1.0  0.46975  0.55075  0.10400  1.0000
  C   C49       1.0  0.47735  0.60077  0.94250  1.0000
  C   C50       1.0  0.46830  0.56224  0.99022  1.0000
  C  Sn7       1.0  0.29448  0.48267  0.03580  1.0000
  C  Sn8       1.0  0.26770  0.49941  0.03340  1.0000
  C   C51       1.0  0.41542  0.59532  0.98533  1.0000
  C   C52       1.0  0.45093  0.61730  0.94002  1.0000
  H   H31       1.0  0.50480  0.61777  0.90733  1.0000
  O  Te7       1.0  0.28592  0.44421  0.08322  1.0000
  O  Te8       1.0  0.23211  0.47784  0.07829  1.0000
  H   H32       1.0  0.45791  0.64712  0.90295  1.0000
  Mg  Mg4       1.0  0.23370  0.42662  0.13374  1.0000
  C   C53       1.0  0.53353  0.98826  0.02758  1.0000
  C   C54       1.0  0.48770  0.96103  0.00275  1.0000
  C  Sn9       1.0  0.59430  0.03196  0.95441  1.0000
  C  Sn10      1.0  0.10702  0.07359  0.93053  1.0000
  C   C55       1.0  0.15293  0.10058  0.95555  1.0000
  C   C56       1.0  0.04608  0.02932  0.00398  1.0000
  H   H33       1.0  0.55794  0.97749  0.06494  1.0000
  O  Te9       1.0  0.54865  0.00435  0.93021  1.0000
  O  Te10      1.0  0.07592  0.08797  0.88216  1.0000
  H   H34       1.0  0.08154  0.05040  0.02306  1.0000
  Mg  Mg5       1.0  0.51913  0.03858  0.86462  1.0000
  C   C57       1.0  0.46629  0.87481  0.97337  1.0000
  C   C58       1.0  0.45349  0.90387  0.97415  1.0000
  C  Sn11      1.0  0.41500  0.89279  0.99726  1.0000
  C  Sn12      1.0  0.25050  0.79449  0.02004  1.0000
  C   C59       1.0  0.26362  0.76566  0.01920  1.0000
  C   C60       1.0  0.44060  0.83442  0.99590  1.0000
  H   H35       1.0  0.49614  0.88365  0.95546  1.0000
  O  Te11      1.0  0.40268  0.92220  0.99763  1.0000
  O  Te12      1.0  0.21190  0.78259  0.04347  1.0000
  H   H36       1.0  0.45052  0.81192  0.99543  1.0000
  Mg  Mg6       1.0  0.20887  0.83376  0.03414  1.0000
  C   C61       1.0  0.87115  0.40248  0.96547  1.0000
  C   C62       1.0  0.90103  0.44452  0.97007  1.0000
  C  Sn13      1.0  0.89097  0.47470  0.98775  1.0000
  C  Sn14      1.0  0.71180  0.40513  0.00108  1.0000
  C   C63       1.0  0.82057  0.42034  0.99648  1.0000
  C   C64       1.0  0.83097  0.39040  0.97869  1.0000
  H   H37       1.0  0.87921  0.37932  0.95182  1.0000
  O  Te13      1.0  0.92119  0.51657  0.99204  1.0000
  O  Te14      1.0  0.70092  0.43465  0.01892  1.0000
  H   H38       1.0  0.80784  0.35785  0.97526  1.0000
  Mg  Mg7       1.0  0.75293  0.48786  0.01812  1.0000
  C   C65       1.0  0.53554  0.38927  0.05415  1.0000
  C   C66       1.0  0.56894  0.39737  0.00360  1.0000
  C  Sn15      1.0  0.73033  0.49312  0.96143  1.0000
  C  Sn16      1.0  0.71961  0.52393  0.97021  1.0000
  C   C67       1.0  0.54775  0.45819  0.02106  1.0000
  C   C68       1.0  0.52496  0.41964  0.06292  1.0000
  H   H39       1.0  0.51793  0.35946  0.08664  1.0000
  O  Te15      1.0  0.76358  0.50070  0.91111  1.0000
  O  Te16      1.0  0.74205  0.56259  0.92884  1.0000
  H   H40       1.0  0.49913  0.41339  0.10218  1.0000
  Mg  Mg8       1.0  0.78475  0.55815  0.86735  1.0000
  C   C69       1.0  0.61399  0.14177  0.99051  1.0000
  C   C70       1.0  0.60162  0.17093  0.99570  1.0000
  C  Sn17      1.0  0.42262  0.10135  0.00581  1.0000
  C  Sn18      1.0  0.39397  0.05913  0.01085  1.0000
  C   C71       1.0  0.40667  0.03020  0.00573  1.0000
  C   C72       1.0  0.58576  0.10012  0.99555  1.0000
  H   H41       1.0  0.64547  0.15150  0.98274  1.0000
  O  Te17      1.0  0.41076  0.13088  0.01082  1.0000
  O  Te18      1.0  0.35324  0.04606  0.02103  1.0000
  H   H42       1.0  0.59535  0.07754  0.99166  1.0000
  Mg  Mg9       1.0  0.35183  0.09791  0.02458  1.0000
  C   C73       1.0  0.98466  0.53197  0.45805  1.0000
  C   C74       1.0  0.95799  0.49163  0.47805  1.0000
  C  Sn19      1.0  0.97702  0.46606  0.52856  1.0000
  C  Sn20      1.0  0.02363  0.48124  0.55958  1.0000
  C   C75       1.0  0.05005  0.52166  0.53934  1.0000
  C   C76       1.0  0.03065  0.54698  0.48869  1.0000
  H   H43       1.0  0.96967  0.55157  0.41896  1.0000
  O  Te19      1.0  0.94987  0.42583  0.54787  1.0000
  O  Te20      1.0  0.04353  0.45635  0.61026  1.0000
  H   H44       1.0  0.05133  0.57822  0.47334  1.0000
  Mg  Mg10      1.0  0.99254  0.40375  0.61915  1.0000
  C   C77       1.0  0.13005  0.59741  0.54437  1.0000
  C   C78       1.0  0.09716  0.55451  0.51771  1.0000
  C  Sn21      1.0  0.10756  0.52441  0.50290  1.0000
  C  Sn22      1.0  0.15174  0.53759  0.51511  1.0000
  C   C79       1.0  0.18442  0.58059  0.54192  1.0000
  C   C80       1.0  0.17364  0.61045  0.55650  1.0000
  H   H45       1.0  0.12173  0.62052  0.55576  1.0000
  O  Te21      1.0  0.07429  0.48167  0.47622  1.0000
  O  Te22      1.0  0.16305  0.50818  0.50084  1.0000
  H   H46       1.0  0.19913  0.64367  0.57727  1.0000
  Mg  Mg11      1.0  0.10607  0.45355  0.46499  1.0000
  C   C81       1.0  0.53165  0.52269  0.43862  1.0000
  C   C82       1.0  0.52355  0.48495  0.49379  1.0000
  C  Sn23      1.0  0.49010  0.46434  0.54997  1.0000
  C  Sn24      1.0  0.46433  0.48191  0.55073  1.0000
  C   C83       1.0  0.47266  0.51967  0.49515  1.0000
  C   C84       1.0  0.50623  0.54004  0.43925  1.0000
  H   H47       1.0  0.55759  0.53844  0.39526  1.0000
  O  Te23      1.0  0.48247  0.42666  0.60474  1.0000
  O  Te24      1.0  0.43068  0.46197  0.60616  1.0000
  H   H48       1.0  0.51246  0.56925  0.39642  1.0000
  Mg  Mg12      1.0  0.43291  0.41128  0.66868  1.0000
  C   C85       1.0  0.48397  0.60274  0.50680  1.0000
  C   C86       1.0  0.46737  0.56054  0.51397  1.0000
  C  Sn25      1.0  0.42212  0.53408  0.49474  1.0000
  C  Sn26      1.0  0.39303  0.55026  0.46780  1.0000
  C   C87       1.0  0.40995  0.59252  0.46070  1.0000
  C   C88       1.0  0.45529  0.61872  0.48017  1.0000
  H   H49       1.0  0.51904  0.62302  0.52175  1.0000
  O  Te25      1.0  0.40609  0.49201  0.50231  1.0000
  O  Te26      1.0  0.34765  0.52450  0.44811  1.0000
  H   H50       1.0  0.46813  0.65138  0.47449  1.0000
  Mg  Mg13      1.0  0.34166  0.46936  0.46830  1.0000
  C   C89       1.0  0.45408  0.98904  0.46516  1.0000
  C   C90       1.0  0.46761  0.96017  0.47273  1.0000
  C  Sn27      1.0  0.51242  0.97365  0.49573  1.0000
  C  Sn28      1.0  0.54420  0.01686  0.51147  1.0000
  C   C91       1.0  0.02864  0.04551  0.50387  1.0000
  C   C92       1.0  0.98371  0.03167  0.48074  1.0000
  H   H51       1.0  0.41932  0.97835  0.44738  1.0000
  O  Te27      1.0  0.52536  0.94438  0.50294  1.0000
  O  Te28      1.0  0.08751  0.03119  0.53463  1.0000
  H   H52       1.0  0.97325  0.05404  0.47502  1.0000
  Mg  Mg14      1.0  0.59051  0.97921  0.53614  1.0000
  C   C93       1.0  0.39777  0.88098  0.49887  1.0000
  C   C94       1.0  0.44130  0.90672  0.50433  1.0000
  C  Sn29      1.0  0.46533  0.88918  0.49153  1.0000
  C  Sn30      1.0  0.44531  0.84503  0.47287  1.0000
  C   C95       1.0  0.40172  0.81955  0.46741  1.0000
  C   C96       1.0  0.37798  0.83744  0.48040  1.0000
  H   H53       1.0  0.37938  0.89482  0.50881  1.0000
  O  Te29      1.0  0.50880  0.91535  0.49729  1.0000
  O  Te30      1.0  0.46856  0.82667  0.45972  1.0000
  H   H54       1.0  0.34426  0.81750  0.47604  1.0000
  Mg  Mg15      1.0  0.52695  0.87548  0.47432  1.0000
  C   C97       1.0  0.85694  0.47422  0.50654  1.0000
  C   C98       1.0  0.82319  0.43087  0.46790  1.0000
  C  Sn31      1.0  0.83324  0.40111  0.44392  1.0000
  C  Sn32      1.0  0.87793  0.41511  0.45904  1.0000
  C   C99       1.0  0.91147  0.45855  0.49787  1.0000
  C   C100      1.0  0.90104  0.48806  0.52155  1.0000
  H   H55       1.0  0.84889  0.49705  0.52497  1.0000
  O  Te31      1.0  0.79911  0.35792  0.40531  1.0000
  O  Te32      1.0  0.88891  0.38605  0.43578  1.0000
  H   H56       1.0  0.92719  0.52162  0.55159  1.0000
  Mg  Mg16      1.0  0.83073  0.33056  0.38503  1.0000
  C   C101      1.0  0.59283  0.46763  0.51916  1.0000
  C   C102      1.0  0.54729  0.45349  0.49059  1.0000
  C  Sn33      1.0  0.51662  0.41125  0.48097  1.0000
  C  Sn34      1.0  0.53193  0.38271  0.50041  1.0000
  C   C103      1.0  0.57758  0.39717  0.52909  1.0000
  C   C104      1.0  0.60797  0.43951  0.53843  1.0000
  H   H57       1.0  0.61636  0.50040  0.52649  1.0000
  O  Te33      1.0  0.47124  0.39764  0.45229  1.0000
  O  Te34      1.0  0.50201  0.34032  0.49144  1.0000
  H   H58       1.0  0.64324  0.45045  0.56067  1.0000
  Mg  Mg17      1.0  0.44344  0.33687  0.45022  1.0000
  C   C105      1.0  0.59866  0.11764  0.46553  1.0000
  C   C106      1.0  0.56008  0.09325  0.49248  1.0000
  C  Sn35      1.0  0.53809  0.11125  0.52048  1.0000
  C  Sn36      1.0  0.55511  0.15447  0.52139  1.0000
  C   C107      1.0  0.59371  0.17859  0.49416  1.0000
  C   C108      1.0  0.61546  0.16027  0.46633  1.0000
  H   H59       1.0  0.61548  0.10346  0.44389  1.0000
  O  Te35      1.0  0.49960  0.08644  0.54726  1.0000
  O  Te36      1.0  0.53378  0.17325  0.54899  1.0000
  H   H60       1.0  0.64531  0.17915  0.44534  1.0000
  Mg  Mg18      1.0  0.48240  0.12639  0.57936  1.0000
