data_image0
_chemical_formula_structural       OC4H3N2CHC5H3OC4H3N2CHC5H3OC4H3N2OC4H3N2OC4H3N2OC4H3N2CHC5H3C6OC4H3N2OC4H3N2CHC5H3OC4H3N2OC4H3N2CHC5H3OC4H3N2OC4H3N2CHC5H3C8Sn2C2HTe2HMgC2Sn2C2HTe2HMgC2Sn2C2HTe2HMgC2Sn2C2HTe2HMgC2Sn2C2HTe2HMgC2Sn2C2HTe2HMg
_chemical_formula_sum              "O12 C120 H72 N24 Sn12 Te12 Mg6"
_cell_length_a       36.8204
_cell_length_b       37.0594
_cell_length_c       8.05426
_cell_angle_alpha    120.36
_cell_angle_beta     86.7322
_cell_angle_gamma    120.346

_symmetry_space_group_name_H-M    'P1'
_space_group_IT_number       1

loop_
  _space_group_symop_operation_xyz
  'x, y, z'

loop_
  _atom_site_type_symbol
  _atom_site_label
  _atom_site_symmetry_multiplicity
  _atom_site_fract_x
  _atom_site_fract_y
  _atom_site_fract_z
  _atom_site_occupancy
  O   O1        1.0  0.41489  0.94122  0.24131  1.0000
  C   C1        1.0  0.48731  0.95648  0.26831  1.0000
  C   C2        1.0  0.47275  0.91341  0.27596  1.0000
  C   C3        1.0  0.45730  0.96897  0.25056  1.0000
  C   C4        1.0  0.35314  0.70473  0.24403  1.0000
  H   H1        1.0  0.41152  0.91267  0.24751  1.0000
  H   H2        1.0  0.49757  0.90691  0.29682  1.0000
  H   H3        1.0  0.55436  0.97742  0.29406  1.0000
  N   N1        1.0  0.37704  0.68631  0.23924  1.0000
  N   N2        1.0  0.43166  0.88403  0.26006  1.0000
  C   C5        1.0  0.41505  0.84044  0.25711  1.0000
  H   H4        1.0  0.31864  0.75634  0.28075  1.0000
  C   C6        1.0  0.37197  0.81789  0.27392  1.0000
  C   C7        1.0  0.35189  0.77386  0.26807  1.0000
  C   C8        1.0  0.41727  0.77312  0.22751  1.0000
  C   C9        1.0  0.43742  0.81707  0.23202  1.0000
  C   C10       1.0  0.37437  0.75099  0.24650  1.0000
  H   H5        1.0  0.35490  0.83594  0.29113  1.0000
  H   H6        1.0  0.43410  0.75464  0.20655  1.0000
  H   H7        1.0  0.46997  0.83242  0.20962  1.0000
  O   O2        1.0  0.05270  0.47147  0.26794  1.0000
  C   C11       1.0  0.04310  0.52994  0.25133  1.0000
  C   C12       1.0  0.08776  0.55814  0.24929  1.0000
  C   C13       1.0  0.02681  0.48642  0.25666  1.0000
  C   C14       1.0  0.29276  0.64169  0.24661  1.0000
  H   H8        1.0  0.08272  0.49655  0.26762  1.0000
  H   H9        1.0  0.09736  0.58890  0.23084  1.0000
  H   H10       1.0  0.02691  0.57702  0.23451  1.0000
  N   N3        1.0  0.31101  0.68393  0.24919  1.0000
  N   N4        1.0  0.11496  0.54647  0.26439  1.0000
  C   C15       1.0  0.15844  0.57197  0.25919  1.0000
  H   H11       1.0  0.24390  0.55819  0.25057  1.0000
  C   C16       1.0  0.18205  0.55133  0.25544  1.0000
  C   C17       1.0  0.22555  0.57387  0.25213  1.0000
  C   C18       1.0  0.22343  0.63881  0.25807  1.0000
  C   C19       1.0  0.17996  0.61637  0.26148  1.0000
  C   C20       1.0  0.24682  0.61786  0.25298  1.0000
  H   H12       1.0  0.16537  0.51749  0.25656  1.0000
  H   H13       1.0  0.24017  0.67267  0.25717  1.0000
  H   H14       1.0  0.16278  0.63335  0.26448  1.0000
  O   O3        1.0  0.53382  0.58350  0.25711  1.0000
  C   C21       1.0  0.47194  0.51300  0.25156  1.0000
  C   C22       1.0  0.44351  0.52903  0.25318  1.0000
  C   C23       1.0  0.51659  0.54086  0.25158  1.0000
  C   C24       1.0  0.35594  0.64410  0.23861  1.0000
  H   H15       1.0  0.50865  0.58761  0.25171  1.0000
  H   H16       1.0  0.41007  0.50620  0.25724  1.0000
  H   H17       1.0  0.42139  0.44766  0.24729  1.0000
  N   N5        1.0  0.31366  0.61987  0.23920  1.0000
  N   N6        1.0  0.45691  0.56831  0.24696  1.0000
  O   O4        1.0  0.58917  0.05562  0.27526  1.0000
  C   C25       1.0  0.51676  0.04042  0.25001  1.0000
  C   C26       1.0  0.53106  0.08310  0.24000  1.0000
  C   C27       1.0  0.54682  0.02805  0.26821  1.0000
  C   C28       1.0  0.64675  0.28959  0.25538  1.0000
  H   H18       1.0  0.59242  0.08400  0.26831  1.0000
  H   H19       1.0  0.50611  0.08964  0.22168  1.0000
  H   H20       1.0  0.44983  0.01975  0.22481  1.0000
  N   N7        1.0  0.62145  0.30622  0.25648  1.0000
  N   N8        1.0  0.57191  0.11213  0.25205  1.0000
  O   O5        1.0  0.94503  0.53212  0.22739  1.0000
  C   C29       1.0  0.95504  0.47403  0.24424  1.0000
  C   C30       1.0  0.91065  0.44572  0.24799  1.0000
  C   C31       1.0  0.97121  0.51742  0.23846  1.0000
  C   C32       1.0  0.70576  0.35355  0.25202  1.0000
  H   H21       1.0  0.91510  0.50699  0.22648  1.0000
  H   H22       1.0  0.90202  0.41590  0.27112  1.0000
  H   H23       1.0  0.97104  0.42676  0.25979  1.0000
  N   N9        1.0  0.68896  0.31169  0.25156  1.0000
  N   N10       1.0  0.88251  0.45591  0.22958  1.0000
  O   O6        1.0  0.46384  0.40883  0.23828  1.0000
  C   C33       1.0  0.52575  0.47892  0.24096  1.0000
  C   C34       1.0  0.55394  0.46269  0.23951  1.0000
  C   C35       1.0  0.48115  0.45120  0.24168  1.0000
  C   C36       1.0  0.64129  0.34821  0.25583  1.0000
  H   H24       1.0  0.48909  0.40488  0.24530  1.0000
  H   H25       1.0  0.58703  0.48431  0.22923  1.0000
  H   H26       1.0  0.57637  0.54436  0.24552  1.0000
  N   N11       1.0  0.68346  0.37364  0.25694  1.0000
  N   N12       1.0  0.54045  0.42405  0.25112  1.0000
  C   C37       1.0  0.56726  0.40786  0.25458  1.0000
  H   H27       1.0  0.55569  0.30875  0.24173  1.0000
  C   C38       1.0  0.54728  0.36296  0.24745  1.0000
  C   C39       1.0  0.57094  0.34315  0.24569  1.0000
  C   C40       1.0  0.63554  0.41289  0.26047  1.0000
  C   C41       1.0  0.61205  0.43276  0.26226  1.0000
  C   C42       1.0  0.61546  0.36795  0.25254  1.0000
  H   H28       1.0  0.51290  0.34433  0.24445  1.0000
  H   H29       1.0  0.66993  0.43165  0.26443  1.0000
  H   H30       1.0  0.62848  0.46741  0.26728  1.0000
  C   C43       1.0  0.53145  0.98644  0.27762  1.0000
  C   C44       1.0  0.01493  0.54457  0.24253  1.0000
  C   C45       1.0  0.45519  0.46874  0.24627  1.0000
  C   C46       1.0  0.47271  0.01076  0.24219  1.0000
  C   C47       1.0  0.98314  0.45942  0.25317  1.0000
  C   C48       1.0  0.54249  0.52316  0.24559  1.0000
  O   O7        1.0  0.41373  0.94825  0.74623  1.0000
  C   C49       1.0  0.48580  0.96222  0.76719  1.0000
  C   C50       1.0  0.47105  0.91924  0.77617  1.0000
  C   C51       1.0  0.45610  0.97525  0.75159  1.0000
  C   C52       1.0  0.35349  0.71074  0.74527  1.0000
  H   H31       1.0  0.41007  0.91966  0.75249  1.0000
  H   H32       1.0  0.49570  0.91236  0.79525  1.0000
  H   H33       1.0  0.55245  0.98189  0.78762  1.0000
  N   N13       1.0  0.37831  0.69328  0.73980  1.0000
  N   N14       1.0  0.43011  0.89044  0.76382  1.0000
  O   O8        1.0  0.05437  0.46974  0.77635  1.0000
  C   C53       1.0  0.04409  0.52600  0.74560  1.0000
  C   C54       1.0  0.08843  0.55372  0.73964  1.0000
  C   C55       1.0  0.02810  0.48396  0.76071  1.0000
  C   C56       1.0  0.29416  0.64702  0.74905  1.0000
  H   H34       1.0  0.08435  0.49468  0.77682  1.0000
  H   H35       1.0  0.09671  0.58224  0.70875  1.0000
  H   H36       1.0  0.02802  0.57162  0.71603  1.0000
  N   N15       1.0  0.31136  0.68908  0.75061  1.0000
  N   N16       1.0  0.11691  0.54474  0.76624  1.0000
  C   C57       1.0  0.16019  0.57179  0.76130  1.0000
  H   H37       1.0  0.24894  0.56395  0.75659  1.0000
  C   C58       1.0  0.18575  0.55346  0.76002  1.0000
  C   C59       1.0  0.22910  0.57785  0.75637  1.0000
  C   C60       1.0  0.22305  0.64034  0.75980  1.0000
  C   C61       1.0  0.17972  0.61605  0.76340  1.0000
  C   C62       1.0  0.24833  0.62151  0.75532  1.0000
  H   H38       1.0  0.17077  0.52006  0.76385  1.0000
  H   H39       1.0  0.23816  0.67414  0.75914  1.0000
  H   H40       1.0  0.16104  0.63159  0.76778  1.0000
  O   O9        1.0  0.53478  0.58912  0.75813  1.0000
  C   C63       1.0  0.47231  0.51861  0.75079  1.0000
  C   C64       1.0  0.44444  0.53530  0.75345  1.0000
  C   C65       1.0  0.51703  0.54629  0.75148  1.0000
  C   C66       1.0  0.35822  0.65129  0.74070  1.0000
  H   H41       1.0  0.50978  0.59358  0.75310  1.0000
  H   H42       1.0  0.41092  0.51296  0.75801  1.0000
  H   H43       1.0  0.42116  0.45320  0.74463  1.0000
  N   N17       1.0  0.31620  0.62655  0.74304  1.0000
  N   N18       1.0  0.45854  0.57492  0.74830  1.0000
  O   O10       1.0  0.58765  0.06009  0.76807  1.0000
  C   C67       1.0  0.51582  0.04636  0.74911  1.0000
  C   C68       1.0  0.53051  0.08933  0.74048  1.0000
  C   C69       1.0  0.54546  0.03318  0.76386  1.0000
  C   C70       1.0  0.64788  0.29641  0.76056  1.0000
  H   H44       1.0  0.59102  0.08843  0.76024  1.0000
  H   H45       1.0  0.50597  0.09694  0.72796  1.0000
  H   H46       1.0  0.44896  0.02643  0.72897  1.0000
  N   N19       1.0  0.62297  0.31335  0.76026  1.0000
  N   N20       1.0  0.57125  0.11759  0.74806  1.0000
  C   C71       1.0  0.58748  0.16073  0.74730  1.0000
  H   H47       1.0  0.68575  0.25015  0.75734  1.0000
  C   C72       1.0  0.63178  0.18616  0.74861  1.0000
  C   C73       1.0  0.65150  0.23028  0.75493  1.0000
  C   C74       1.0  0.58301  0.22468  0.75499  1.0000
  C   C75       1.0  0.56322  0.18063  0.74921  1.0000
  C   C76       1.0  0.62737  0.25020  0.75805  1.0000
  H   H48       1.0  0.65013  0.17042  0.74628  1.0000
  H   H49       1.0  0.56473  0.24053  0.75789  1.0000
  H   H50       1.0  0.52902  0.16209  0.74903  1.0000
  O   O11       1.0  0.94662  0.52852  0.71514  1.0000
  C   C77       1.0  0.95643  0.47196  0.74654  1.0000
  C   C78       1.0  0.91195  0.44470  0.75219  1.0000
  C   C79       1.0  0.97253  0.51404  0.73144  1.0000
  C   C80       1.0  0.70741  0.35996  0.75688  1.0000
  H   H51       1.0  0.91658  0.50384  0.71689  1.0000
  H   H52       1.0  0.90286  0.41561  0.78060  1.0000
  H   H53       1.0  0.97245  0.42610  0.77490  1.0000
  N   N21       1.0  0.69023  0.31849  0.75943  1.0000
  N   N22       1.0  0.88441  0.45517  0.72830  1.0000
  O   O12       1.0  0.46328  0.41336  0.73301  1.0000
  C   C81       1.0  0.52536  0.48370  0.73884  1.0000
  C   C82       1.0  0.55366  0.46767  0.73885  1.0000
  C   C83       1.0  0.48064  0.45597  0.73812  1.0000
  C   C84       1.0  0.64322  0.35527  0.75912  1.0000
  H   H54       1.0  0.48831  0.40890  0.73628  1.0000
  H   H55       1.0  0.58750  0.49120  0.74103  1.0000
  H   H56       1.0  0.57660  0.54924  0.74683  1.0000
  N   N23       1.0  0.68545  0.38027  0.75881  1.0000
  N   N24       1.0  0.53994  0.42782  0.74138  1.0000
  C   C85       1.0  0.56747  0.41250  0.74720  1.0000
  H   H57       1.0  0.56019  0.32126  0.78587  1.0000
  C   C86       1.0  0.54954  0.37130  0.76542  1.0000
  C   C87       1.0  0.57393  0.35273  0.76974  1.0000
  C   C88       1.0  0.63526  0.41608  0.73807  1.0000
  C   C89       1.0  0.61100  0.43473  0.73406  1.0000
  C   C90       1.0  0.61719  0.37485  0.75557  1.0000
  H   H58       1.0  0.51618  0.35462  0.77798  1.0000
  H   H59       1.0  0.66852  0.43256  0.72423  1.0000
  H   H60       1.0  0.62569  0.46568  0.71442  1.0000
  C   C91       1.0  0.52983  0.99148  0.77336  1.0000
  C   C92       1.0  0.01600  0.54013  0.73078  1.0000
  C   C93       1.0  0.45508  0.47405  0.74433  1.0000
  C   C94       1.0  0.47176  0.01708  0.74338  1.0000
  C   C95       1.0  0.98452  0.45763  0.76032  1.0000
  C   C96       1.0  0.54261  0.52824  0.74585  1.0000
  C   C97       1.0  0.80363  0.44738  0.24516  1.0000
  C   C98       1.0  0.83432  0.43603  0.24924  1.0000
  C  Sn1       1.0  0.82193  0.39284  0.24267  1.0000
  C  Sn2       1.0  0.77798  0.36048  0.23177  1.0000
  C   C99       1.0  0.74753  0.37215  0.22762  1.0000
  C   C100      1.0  0.76028  0.41548  0.23432  1.0000
  H   H61       1.0  0.81349  0.48088  0.25023  1.0000
  O  Te1       1.0  0.85301  0.38207  0.24696  1.0000
  O  Te2       1.0  0.76471  0.31706  0.22495  1.0000
  H   H62       1.0  0.73651  0.42424  0.23103  1.0000
  Mg  Mg1       1.0  0.81907  0.31850  0.23456  1.0000
  C   C101      1.0  0.37510  0.56023  0.24887  1.0000
  C   C102      1.0  0.41756  0.57524  0.23049  1.0000
  C  Sn3       1.0  0.44345  0.61766  0.22355  1.0000
  C  Sn4       1.0  0.42644  0.64551  0.23531  1.0000
  C   C103      1.0  0.38394  0.63020  0.25382  1.0000
  C   C104      1.0  0.35831  0.58768  0.26056  1.0000
  H   H63       1.0  0.35528  0.52735  0.25420  1.0000
  O  Te3       1.0  0.48579  0.63213  0.20507  1.0000
  O  Te4       1.0  0.45162  0.68806  0.22881  1.0000
  H   H64       1.0  0.32545  0.57609  0.27493  1.0000
  Mg  Mg2       1.0  0.50742  0.69279  0.20256  1.0000
  C   C105      1.0  0.42618  0.78918  0.72247  1.0000
  C   C106      1.0  0.38604  0.76398  0.75681  1.0000
  C  Sn5       1.0  0.35787  0.78020  0.78551  1.0000
  C  Sn6       1.0  0.37021  0.82243  0.77957  1.0000
  C   C107      1.0  0.41042  0.84737  0.74497  1.0000
  C   C108      1.0  0.43836  0.83083  0.71651  1.0000
  H   H65       1.0  0.44779  0.77638  0.70035  1.0000
  O  Te5       1.0  0.31790  0.75460  0.81972  1.0000
  O  Te6       1.0  0.34268  0.83943  0.80769  1.0000
  H   H66       1.0  0.46943  0.85033  0.68980  1.0000
  Mg  Mg3       1.0  0.29158  0.79209  0.84950  1.0000
  C   C109      1.0  0.57234  0.20727  0.25061  1.0000
  C   C110      1.0  0.61586  0.23905  0.26361  1.0000
  C  Sn7       1.0  0.64600  0.22666  0.26221  1.0000
  C  Sn8       1.0  0.63224  0.18158  0.24745  1.0000
  C   C111      1.0  0.58863  0.15001  0.23438  1.0000
  C   C112      1.0  0.55873  0.16278  0.23597  1.0000
  H   H67       1.0  0.54921  0.21713  0.25173  1.0000
  O  Te7       1.0  0.68936  0.25885  0.27539  1.0000
  O  Te8       1.0  0.66169  0.16827  0.24565  1.0000
  H   H68       1.0  0.52504  0.13815  0.22578  1.0000
  Mg  Mg4       1.0  0.71727  0.22440  0.26709  1.0000
  C   C113      1.0  0.81152  0.37800  0.75328  1.0000
  C   C114      1.0  0.83610  0.41715  0.72552  1.0000
  C  Sn9       1.0  0.81862  0.44224  0.71762  1.0000
  C  Sn10      1.0  0.77572  0.42778  0.73801  1.0000
  C   C115      1.0  0.75140  0.38859  0.76587  1.0000
  C   C116      1.0  0.76921  0.36373  0.77348  1.0000
  H   H69       1.0  0.82530  0.35878  0.75928  1.0000
  O  Te9       1.0  0.84363  0.48127  0.68972  1.0000
  O  Te10      1.0  0.75746  0.45223  0.73076  1.0000
  H   H70       1.0  0.75018  0.33343  0.79511  1.0000
  Mg  Mg5       1.0  0.80440  0.50314  0.69003  1.0000
  C   C117      1.0  0.43905  0.65694  0.75150  1.0000
  C   C118      1.0  0.39450  0.63702  0.73373  1.0000
  C  Sn11      1.0  0.36783  0.59316  0.73029  1.0000
  C  Sn12      1.0  0.38620  0.56888  0.74501  1.0000
  C   C119      1.0  0.43081  0.58912  0.76288  1.0000
  C   C120      1.0  0.45720  0.63302  0.76610  1.0000
  H   H71       1.0  0.45948  0.69092  0.75410  1.0000
  O  Te11      1.0  0.32338  0.57376  0.71238  1.0000
  O  Te12      1.0  0.36029  0.52500  0.74204  1.0000
  H   H72       1.0  0.49170  0.64845  0.77999  1.0000
  Mg  Mg6       1.0  0.30149  0.51309  0.71518  1.0000
