data_image0
_chemical_formula_structural       N2C12H8N2C6H4N2C6H4N2C6H4N2C6H4N2C12H8N2C6H4N2C6H4N2C12H8N2C12H8N2C12H8N2C6H4N2C6H4N2C12H8N2C12H8N2C12H8C6Sn2C2HTe2HMgC2Sn2C2HTe2HMgC2Sn2C2HTe2HMgC2Sn2C2HTe2HMgC2Sn2C2HTe2HMgC2Sn2C2HTe2HMgC2Sn2C2HTe2HMgC2Sn2C2HTe2HMg
_chemical_formula_sum              "N32 C180 H112 Sn16 Te16 Mg8"
_cell_length_a       22.5807
_cell_length_b       22.5706
_cell_length_c       8.58782
_cell_angle_alpha    90.0354
_cell_angle_beta     90.0841
_cell_angle_gamma    89.276

_symmetry_space_group_name_H-M    'P1'
_space_group_IT_number       1

loop_
  _space_group_symop_operation_xyz
  'x, y, z'

loop_
  _atom_site_type_symbol
  _atom_site_label
  _atom_site_symmetry_multiplicity
  _atom_site_fract_x
  _atom_site_fract_y
  _atom_site_fract_z
  _atom_site_occupancy
  N   N1        1.0  0.96736  0.15417  0.51529  1.0000
  N   N2        1.0  0.86900  0.19343  0.82648  1.0000
  C   C1        1.0  0.98719  0.04880  0.11306  1.0000
  C   C2        1.0  0.93502  0.04540  0.20133  1.0000
  C   C3        1.0  0.92537  0.08173  0.32942  1.0000
  C   C4        1.0  0.96880  0.12251  0.37562  1.0000
  C   C5        1.0  0.02031  0.12703  0.28450  1.0000
  C   C6        1.0  0.02921  0.09123  0.15448  1.0000
  C   C7        1.0  0.91888  0.16288  0.59251  1.0000
  C   C8        1.0  0.92103  0.18881  0.74793  1.0000
  C   C9        1.0  0.97503  0.20561  0.81525  1.0000
  C   C10       1.0  0.97541  0.22791  0.96482  1.0000
  C   C11       1.0  0.92209  0.23417  0.04901  1.0000
  C   C12       1.0  0.87028  0.21525  0.97121  1.0000
  H   H1        1.0  0.90308  0.01123  0.17415  1.0000
  H   H2        1.0  0.88632  0.07471  0.40064  1.0000
  H   H3        1.0  0.05427  0.15788  0.32089  1.0000
  H   H4        1.0  0.07026  0.09449  0.08913  1.0000
  H   H5        1.0  0.87461  0.15128  0.55005  1.0000
  H   H6        1.0  0.01539  0.20112  0.74720  1.0000
  H   H7        1.0  0.01705  0.24167  0.01594  1.0000
  H   H8        1.0  0.82751  0.21718  0.02996  1.0000
  N   N3        1.0  0.46607  0.65622  0.01209  1.0000
  N   N4        1.0  0.36867  0.70043  0.32083  1.0000
  C   C13       1.0  0.41774  0.66682  0.08833  1.0000
  C   C14       1.0  0.42063  0.69281  0.24355  1.0000
  C   C15       1.0  0.47529  0.70694  0.31150  1.0000
  C   C16       1.0  0.47646  0.72976  0.46050  1.0000
  C   C17       1.0  0.42330  0.73889  0.54378  1.0000
  C   C18       1.0  0.37076  0.72261  0.46514  1.0000
  H   H9        1.0  0.37313  0.65706  0.04499  1.0000
  H   H10       1.0  0.51552  0.70006  0.24424  1.0000
  H   H11       1.0  0.51868  0.74143  0.51192  1.0000
  H   H12       1.0  0.32796  0.72700  0.52287  1.0000
  N   N5        1.0  0.03818  0.84368  0.51845  1.0000
  N   N6        1.0  0.13585  0.80587  0.83346  1.0000
  C   C19       1.0  0.08652  0.83591  0.59725  1.0000
  C   C20       1.0  0.08420  0.80980  0.75245  1.0000
  C   C21       1.0  0.03012  0.79192  0.81653  1.0000
  C   C22       1.0  0.02925  0.76888  0.96521  1.0000
  C   C23       1.0  0.08215  0.76306  0.05172  1.0000
  C   C24       1.0  0.13402  0.78332  0.97740  1.0000
  H   H13       1.0  0.13072  0.84832  0.55651  1.0000
  H   H14       1.0  0.99017  0.79583  0.74631  1.0000
  H   H15       1.0  0.98761  0.75413  0.01365  1.0000
  H   H16       1.0  0.17624  0.78199  0.03920  1.0000
  N   N7        1.0  0.53468  0.34464  0.01813  1.0000
  N   N8        1.0  0.63374  0.30690  0.32997  1.0000
  C   C25       1.0  0.58337  0.33667  0.09528  1.0000
  C   C26       1.0  0.58172  0.31060  0.25066  1.0000
  C   C27       1.0  0.52802  0.29254  0.31674  1.0000
  C   C28       1.0  0.52794  0.26986  0.46580  1.0000
  C   C29       1.0  0.58127  0.26469  0.55099  1.0000
  C   C30       1.0  0.63274  0.28484  0.47450  1.0000
  H   H17       1.0  0.62743  0.34888  0.05299  1.0000
  H   H18       1.0  0.48779  0.29605  0.24755  1.0000
  H   H19       1.0  0.48655  0.25499  0.51571  1.0000
  H   H20       1.0  0.67544  0.28373  0.53415  1.0000
  N   N9        1.0  0.15649  0.03325  0.48384  1.0000
  N   N10       1.0  0.19726  0.13335  0.17961  1.0000
  C   C31       1.0  0.16438  0.08227  0.40918  1.0000
  C   C32       1.0  0.19114  0.08088  0.25478  1.0000
  C   C33       1.0  0.20778  0.02677  0.18584  1.0000
  C   C34       1.0  0.23112  0.02661  0.03760  1.0000
  C   C35       1.0  0.23874  0.08027  0.95629  1.0000
  C   C36       1.0  0.22039  0.13227  0.03613  1.0000
  H   H21       1.0  0.15197  0.12632  0.45372  1.0000
  H   H22       1.0  0.20234  0.98614  0.25183  1.0000
  H   H23       1.0  0.24446  0.98474  0.98536  1.0000
  H   H24       1.0  0.22375  0.17544  0.98011  1.0000
  N   N11       1.0  0.65280  0.53243  0.98303  1.0000
  N   N12       1.0  0.69639  0.63302  0.68272  1.0000
  C   C37       1.0  0.54722  0.51250  0.38361  1.0000
  C   C38       1.0  0.54281  0.56460  0.29469  1.0000
  C   C39       1.0  0.57894  0.57399  0.16680  1.0000
  C   C40       1.0  0.62084  0.53048  0.12182  1.0000
  C   C41       1.0  0.62631  0.47889  0.21306  1.0000
  C   C42       1.0  0.59044  0.47020  0.34258  1.0000
  C   C43       1.0  0.66220  0.58159  0.91036  1.0000
  C   C44       1.0  0.68862  0.58033  0.75554  1.0000
  C   C45       1.0  0.70341  0.52621  0.68380  1.0000
  C   C46       1.0  0.72645  0.52627  0.53522  1.0000
  C   C47       1.0  0.73596  0.58018  0.45658  1.0000
  C   C48       1.0  0.71940  0.63214  0.53914  1.0000
  H   H25       1.0  0.50827  0.59697  0.32164  1.0000
  H   H26       1.0  0.57129  0.61311  0.09533  1.0000
  H   H27       1.0  0.65820  0.44486  0.17824  1.0000
  H   H28       1.0  0.59448  0.42915  0.40816  1.0000
  H   H29       1.0  0.65138  0.62571  0.95723  1.0000
  H   H30       1.0  0.69688  0.48535  0.74797  1.0000
  H   H31       1.0  0.73798  0.48433  0.48055  1.0000
  H   H32       1.0  0.72420  0.67556  0.48542  1.0000
  N   N13       1.0  0.84587  0.96535  0.48464  1.0000
  N   N14       1.0  0.80060  0.86680  0.18142  1.0000
  C   C49       1.0  0.83593  0.91660  0.41049  1.0000
  C   C50       1.0  0.80845  0.91897  0.25684  1.0000
  C   C51       1.0  0.79281  0.97364  0.18923  1.0000
  C   C52       1.0  0.76888  0.97469  0.04146  1.0000
  C   C53       1.0  0.75984  0.92132  0.95976  1.0000
  C   C54       1.0  0.77701  0.86875  0.03850  1.0000
  H   H33       1.0  0.84693  0.87219  0.45506  1.0000
  H   H34       1.0  0.79941  0.01388  0.25618  1.0000
  H   H35       1.0  0.75607  0.01690  0.99003  1.0000
  H   H36       1.0  0.77197  0.82577  0.98237  1.0000
  N   N15       1.0  0.34330  0.46441  0.97930  1.0000
  N   N16       1.0  0.29814  0.36441  0.67884  1.0000
  C   C55       1.0  0.33274  0.41532  0.90723  1.0000
  C   C56       1.0  0.30614  0.41698  0.75236  1.0000
  C   C57       1.0  0.29142  0.47128  0.68145  1.0000
  C   C58       1.0  0.26850  0.47153  0.53249  1.0000
  C   C59       1.0  0.25945  0.41774  0.45249  1.0000
  C   C60       1.0  0.27553  0.36557  0.53470  1.0000
  H   H37       1.0  0.34269  0.37108  0.95440  1.0000
  H   H38       1.0  0.29793  0.51197  0.74661  1.0000
  H   H39       1.0  0.25677  0.51357  0.47860  1.0000
  H   H40       1.0  0.27083  0.32229  0.47985  1.0000
  N   N17       1.0  0.53664  0.15566  0.23358  1.0000
  N   N18       1.0  0.63623  0.19983  0.93224  1.0000
  C   C61       1.0  0.51519  0.05148  0.63536  1.0000
  C   C62       1.0  0.56800  0.04711  0.54963  1.0000
  C   C63       1.0  0.57793  0.08273  0.42091  1.0000
  C   C64       1.0  0.53430  0.12393  0.37247  1.0000
  C   C65       1.0  0.48207  0.12946  0.46078  1.0000
  C   C66       1.0  0.47285  0.09430  0.59126  1.0000
  C   C67       1.0  0.58580  0.16524  0.16131  1.0000
  C   C68       1.0  0.58397  0.19186  0.00676  1.0000
  C   C69       1.0  0.52939  0.20653  0.93737  1.0000
  C   C70       1.0  0.52851  0.22987  0.78917  1.0000
  C   C71       1.0  0.58191  0.23923  0.70833  1.0000
  C   C72       1.0  0.63443  0.22277  0.78854  1.0000
  H   H41       1.0  0.60042  0.01303  0.58012  1.0000
  H   H42       1.0  0.61746  0.07516  0.35118  1.0000
  H   H43       1.0  0.44820  0.16091  0.42227  1.0000
  H   H44       1.0  0.43145  0.09849  0.65508  1.0000
  H   H45       1.0  0.62997  0.15443  0.20777  1.0000
  H   H46       1.0  0.48901  0.19980  0.00327  1.0000
  H   H47       1.0  0.48627  0.24175  0.73670  1.0000
  H   H48       1.0  0.67748  0.22773  0.73295  1.0000
  N   N19       1.0  0.03511  0.65472  0.73394  1.0000
  N   N20       1.0  0.13544  0.69515  0.43074  1.0000
  C   C73       1.0  0.01171  0.55022  0.13479  1.0000
  C   C74       1.0  0.06382  0.54412  0.04676  1.0000
  C   C75       1.0  0.07425  0.57960  0.91818  1.0000
  C   C76       1.0  0.03198  0.62258  0.87212  1.0000
  C   C77       1.0  0.98037  0.62968  0.96231  1.0000
  C   C78       1.0  0.97062  0.59449  0.09256  1.0000
  C   C79       1.0  0.08439  0.66239  0.66063  1.0000
  C   C80       1.0  0.08313  0.68941  0.50653  1.0000
  C   C81       1.0  0.02892  0.70627  0.43834  1.0000
  C   C82       1.0  0.02850  0.72961  0.29010  1.0000
  C   C83       1.0  0.08206  0.73713  0.20854  1.0000
  C   C84       1.0  0.13414  0.71833  0.28730  1.0000
  H   H49       1.0  0.09513  0.50871  0.07495  1.0000
  H   H50       1.0  0.11302  0.57060  0.84665  1.0000
  H   H51       1.0  0.94728  0.66229  0.92572  1.0000
  H   H52       1.0  0.92965  0.59981  0.15773  1.0000
  H   H53       1.0  0.12824  0.64933  0.70543  1.0000
  H   H54       1.0  0.98850  0.70108  0.50517  1.0000
  H   H55       1.0  0.98664  0.74320  0.23820  1.0000
  H   H56       1.0  0.17710  0.72119  0.23013  1.0000
  N   N21       1.0  0.46751  0.84519  0.23393  1.0000
  N   N22       1.0  0.36958  0.80445  0.92451  1.0000
  C   C85       1.0  0.48616  0.95066  0.63549  1.0000
  C   C86       1.0  0.43458  0.95585  0.54458  1.0000
  C   C87       1.0  0.42530  0.91973  0.41625  1.0000
  C   C88       1.0  0.46854  0.87728  0.37286  1.0000
  C   C89       1.0  0.51933  0.87085  0.46678  1.0000
  C   C90       1.0  0.52784  0.90650  0.59693  1.0000
  C   C91       1.0  0.41921  0.83726  0.15600  1.0000
  C   C92       1.0  0.42171  0.81041  0.00166  1.0000
  C   C93       1.0  0.47610  0.79390  0.93413  1.0000
  C   C94       1.0  0.47693  0.77116  0.78499  1.0000
  C   C95       1.0  0.42357  0.76393  0.70169  1.0000
  C   C96       1.0  0.37127  0.78184  0.78060  1.0000
  H   H57       1.0  0.40287  0.99120  0.56993  1.0000
  H   H58       1.0  0.38672  0.92808  0.34319  1.0000
  H   H59       1.0  0.55295  0.83843  0.43277  1.0000
  H   H60       1.0  0.56839  0.90158  0.66438  1.0000
  H   H61       1.0  0.37485  0.85012  0.19712  1.0000
  H   H62       1.0  0.51644  0.79900  0.00176  1.0000
  H   H63       1.0  0.51906  0.75817  0.73366  1.0000
  H   H64       1.0  0.32832  0.77840  0.72339  1.0000
  N   N23       1.0  0.96262  0.34408  0.73499  1.0000
  N   N24       1.0  0.86594  0.30095  0.42545  1.0000
  C   C97       1.0  0.91437  0.33495  0.65789  1.0000
  C   C98       1.0  0.91762  0.30761  0.50415  1.0000
  C   C99       1.0  0.97253  0.29150  0.43903  1.0000
  C   C100      1.0  0.97427  0.26778  0.29100  1.0000
  C   C101      1.0  0.92140  0.25968  0.20630  1.0000
  C   C102      1.0  0.86857  0.27783  0.28213  1.0000
  H   H65       1.0  0.86977  0.34697  0.69900  1.0000
  H   H66       1.0  0.01239  0.29759  0.50797  1.0000
  H   H67       1.0  0.01665  0.25453  0.24163  1.0000
  H   H68       1.0  0.82612  0.27426  0.22241  1.0000
  N   N25       1.0  0.34626  0.03647  0.26690  1.0000
  N   N26       1.0  0.30701  0.13420  0.58034  1.0000
  C   C103      1.0  0.33776  0.08487  0.34495  1.0000
  C   C104      1.0  0.31151  0.08247  0.49999  1.0000
  C   C105      1.0  0.29401  0.02831  0.56468  1.0000
  C   C106      1.0  0.27069  0.02752  0.71304  1.0000
  C   C107      1.0  0.26455  0.08049  0.79921  1.0000
  C   C108      1.0  0.28457  0.13244  0.72439  1.0000
  H   H69       1.0  0.34947  0.12917  0.30306  1.0000
  H   H70       1.0  0.29835  0.98827  0.49504  1.0000
  H   H71       1.0  0.25615  0.98578  0.76166  1.0000
  H   H72       1.0  0.28307  0.17490  0.78509  1.0000
  N   N27       1.0  0.84170  0.53894  0.76489  1.0000
  N   N28       1.0  0.80467  0.63537  0.08272  1.0000
  C   C109      1.0  0.94592  0.51662  0.36190  1.0000
  C   C110      1.0  0.95068  0.56881  0.45015  1.0000
  C   C111      1.0  0.91483  0.57956  0.57856  1.0000
  C   C112      1.0  0.87314  0.53712  0.62514  1.0000
  C   C113      1.0  0.86714  0.48572  0.53378  1.0000
  C   C114      1.0  0.90237  0.47581  0.40337  1.0000
  C   C115      1.0  0.83451  0.58703  0.84501  1.0000
  C   C116      1.0  0.80826  0.58413  0.99995  1.0000
  C   C117      1.0  0.78997  0.52984  0.06222  1.0000
  C   C118      1.0  0.76710  0.52831  0.21102  1.0000
  C   C119      1.0  0.76179  0.58080  0.29958  1.0000
  C   C120      1.0  0.78231  0.63297  0.22674  1.0000
  H   H73       1.0  0.98565  0.59983  0.42294  1.0000
  H   H74       1.0  0.92286  0.61858  0.64955  1.0000
  H   H75       1.0  0.83535  0.45277  0.57057  1.0000
  H   H76       1.0  0.89784  0.43487  0.33780  1.0000
  H   H77       1.0  0.84740  0.63132  0.80567  1.0000
  H   H78       1.0  0.79358  0.49025  0.99057  1.0000
  H   H79       1.0  0.75235  0.48637  0.25791  1.0000
  H   H80       1.0  0.78108  0.67511  0.28894  1.0000
  N   N29       1.0  0.65433  0.96568  0.26865  1.0000
  N   N30       1.0  0.69123  0.86823  0.58368  1.0000
  C   C121      1.0  0.55071  0.98616  0.86333  1.0000
  C   C122      1.0  0.54655  0.93394  0.95152  1.0000
  C   C123      1.0  0.58208  0.92391  0.08108  1.0000
  C   C124      1.0  0.62279  0.96716  0.12878  1.0000
  C   C125      1.0  0.62820  0.01861  0.03770  1.0000
  C   C126      1.0  0.59325  0.02787  0.90624  1.0000
  C   C127      1.0  0.66160  0.91745  0.34797  1.0000
  C   C128      1.0  0.68799  0.91984  0.50275  1.0000
  C   C129      1.0  0.70666  0.97376  0.56690  1.0000
  C   C130      1.0  0.72950  0.97452  0.71591  1.0000
  C   C131      1.0  0.73428  0.92159  0.80256  1.0000
  C   C132      1.0  0.71367  0.86985  0.72775  1.0000
  H   H81       1.0  0.51241  0.90216  0.92294  1.0000
  H   H82       1.0  0.57455  0.88466  0.15140  1.0000
  H   H83       1.0  0.65925  0.05212  0.07577  1.0000
  H   H84       1.0  0.59713  0.06899  0.84123  1.0000
  H   H85       1.0  0.64823  0.87333  0.30831  1.0000
  H   H86       1.0  0.70315  0.01369  0.49672  1.0000
  H   H87       1.0  0.74457  0.01610  0.76473  1.0000
  H   H88       1.0  0.71455  0.82748  0.78867  1.0000
  N   N31       1.0  0.15235  0.46191  0.76390  1.0000
  N   N32       1.0  0.19166  0.36345  0.07561  1.0000
  C   C133      1.0  0.04668  0.48496  0.36319  1.0000
  C   C134      1.0  0.04160  0.43309  0.45234  1.0000
  C   C135      1.0  0.07752  0.42248  0.58073  1.0000
  C   C136      1.0  0.11998  0.46448  0.62551  1.0000
  C   C137      1.0  0.12634  0.51558  0.53344  1.0000
  C   C138      1.0  0.09063  0.52557  0.40362  1.0000
  C   C139      1.0  0.15971  0.41326  0.84147  1.0000
  C   C140      1.0  0.18702  0.41516  0.99543  1.0000
  C   C141      1.0  0.20514  0.46925  0.05946  1.0000
  C   C142      1.0  0.22860  0.47020  0.20775  1.0000
  C   C143      1.0  0.23436  0.41735  0.29448  1.0000
  C   C144      1.0  0.21446  0.36532  0.21947  1.0000
  H   H89       1.0  0.00666  0.40204  0.42482  1.0000
  H   H90       1.0  0.06926  0.38369  0.65218  1.0000
  H   H91       1.0  0.15879  0.54823  0.56865  1.0000
  H   H92       1.0  0.09533  0.56638  0.33771  1.0000
  H   H93       1.0  0.14619  0.36938  0.80041  1.0000
  H   H94       1.0  0.20090  0.50913  0.98929  1.0000
  H   H95       1.0  0.24339  0.51196  0.25582  1.0000
  H   H96       1.0  0.21631  0.32288  0.28002  1.0000
  C   C145      1.0  0.00179  0.99801  0.99988  1.0000
  C   C146      1.0  0.49698  0.49882  0.49832  1.0000
  C   C147      1.0  0.50045  0.00122  0.74875  1.0000
  C   C148      1.0  0.99634  0.50044  0.24911  1.0000
  C   C149      1.0  0.10712  0.96480  0.81706  1.0000
  C   C150      1.0  0.07768  0.00256  0.88529  1.0000
  C  Sn1       1.0  0.06274  0.05649  0.81475  1.0000
  C  Sn2       1.0  0.09050  0.07277  0.67325  1.0000
  C   C151      1.0  0.13250  0.03466  0.60586  1.0000
  C   C152      1.0  0.13450  0.98082  0.67747  1.0000
  H   H97       1.0  0.11842  0.92312  0.87241  1.0000
  O  Te1       1.0  0.02064  0.09371  0.88452  1.0000
  O  Te2       1.0  0.07638  0.12640  0.60023  1.0000
  H   H98       1.0  0.16705  0.95157  0.62456  1.0000
  Mg  Mg1       1.0  0.01628  0.16215  0.74053  1.0000
  C   C153      1.0  0.02778  0.39224  0.07414  1.0000
  C   C154      1.0  0.99392  0.44027  0.12800  1.0000
  C  Sn3       1.0  0.94071  0.45568  0.05440  1.0000
  C  Sn4       1.0  0.92168  0.42252  0.92453  1.0000
  C   C155      1.0  0.95585  0.37452  0.87162  1.0000
  C   C156      1.0  0.00904  0.35950  0.94610  1.0000
  H   H99       1.0  0.06892  0.38059  0.13181  1.0000
  O  Te3       1.0  0.90744  0.50382  0.10967  1.0000
  O  Te4       1.0  0.86865  0.43695  0.84884  1.0000
  H   H100      1.0  0.03522  0.32229  0.90444  1.0000
  Mg  Mg2       1.0  0.83885  0.50637  0.96751  1.0000
  C   C157      1.0  0.44440  0.42095  0.26942  1.0000
  C   C158      1.0  0.44932  0.47140  0.36274  1.0000
  C  Sn5       1.0  0.41232  0.52052  0.33717  1.0000
  C  Sn6       1.0  0.36964  0.51898  0.21586  1.0000
  C   C159      1.0  0.36504  0.46828  0.12322  1.0000
  C   C160      1.0  0.40230  0.41938  0.14978  1.0000
  H   H101      1.0  0.47321  0.38310  0.29001  1.0000
  O  Te5       1.0  0.41784  0.57058  0.43146  1.0000
  O  Te6       1.0  0.33209  0.56745  0.18781  1.0000
  H   H102      1.0  0.39846  0.38031  0.07757  1.0000
  Mg  Mg3       1.0  0.35660  0.62551  0.34758  1.0000
  C   C161      1.0  0.43174  0.08276  0.05694  1.0000
  C   C162      1.0  0.38446  0.04941  0.11209  1.0000
  C  Sn7       1.0  0.35735  0.99594  0.04026  1.0000
  C  Sn8       1.0  0.39148  0.97582  0.91088  1.0000
  C   C163      1.0  0.45135  0.00950  0.85666  1.0000
  C   C164      1.0  0.46544  0.06294  0.92937  1.0000
  H   H103      1.0  0.44266  0.12409  0.11325  1.0000
  O  Te7       1.0  0.30996  0.96318  0.09681  1.0000
  O  Te8       1.0  0.37798  0.92254  0.83694  1.0000
  H   H104      1.0  0.50207  0.08873  0.88671  1.0000
  Mg  Mg4       1.0  0.30933  0.89364  0.95688  1.0000
  C   C165      1.0  0.94978  0.92146  0.76715  1.0000
  C   C166      1.0  0.95423  0.97101  0.86390  1.0000
  C  Sn9       1.0  0.92867  0.01958  0.84356  1.0000
  C  Sn10      1.0  0.88524  0.01838  0.72406  1.0000
  C   C167      1.0  0.86848  0.96858  0.62795  1.0000
  C   C168      1.0  0.90694  0.92023  0.64930  1.0000
  H   H105      1.0  0.97951  0.88403  0.78372  1.0000
  O  Te9       1.0  0.93374  0.06874  0.94122  1.0000
  O  Te10      1.0  0.84649  0.06631  0.70120  1.0000
  H   H106      1.0  0.90345  0.88185  0.57444  1.0000
  Mg  Mg5       1.0  0.87081  0.12321  0.86407  1.0000
  C   C169      1.0  0.47021  0.37578  0.75662  1.0000
  C   C170      1.0  0.52012  0.37181  0.85263  1.0000
  C  Sn11      1.0  0.56757  0.41004  0.83063  1.0000
  C  Sn12      1.0  0.56486  0.45300  0.71020  1.0000
  C   C171      1.0  0.51471  0.45664  0.61484  1.0000
  C   C172      1.0  0.46749  0.41816  0.63785  1.0000
  H   H107      1.0  0.43366  0.34603  0.77446  1.0000
  O  Te11      1.0  0.61711  0.40546  0.92757  1.0000
  O  Te12      1.0  0.61164  0.49177  0.68568  1.0000
  H   H108      1.0  0.42884  0.42126  0.56356  1.0000
  Mg  Mg6       1.0  0.66961  0.46821  0.84812  1.0000
  C   C173      1.0  0.52817  0.62224  0.74954  1.0000
  C   C174      1.0  0.47896  0.62827  0.84700  1.0000
  C  Sn13      1.0  0.43002  0.59175  0.82708  1.0000
  C  Sn14      1.0  0.43051  0.54842  0.70730  1.0000
  C   C175      1.0  0.47998  0.54271  0.61048  1.0000
  C   C176      1.0  0.52870  0.57950  0.63141  1.0000
  H   H109      1.0  0.56589  0.65068  0.76577  1.0000
  O  Te13      1.0  0.38120  0.59838  0.92544  1.0000
  O  Te14      1.0  0.38220  0.51132  0.68485  1.0000
  H   H110      1.0  0.56682  0.57480  0.55600  1.0000
  Mg  Mg7       1.0  0.32600  0.53739  0.84865  1.0000
  C   C177      1.0  0.97073  0.89199  0.18057  1.0000
  C   C178      1.0  0.00440  0.93872  0.12348  1.0000
  C  Sn15      1.0  0.05842  0.95261  0.19318  1.0000
  C  Sn16      1.0  0.07901  0.91900  0.32238  1.0000
  C   C179      1.0  0.04501  0.87231  0.37854  1.0000
  C   C180      1.0  0.99101  0.85880  0.30795  1.0000
  H   H111      1.0  0.92896  0.88151  0.12591  1.0000
  O  Te15      1.0  0.09150  0.99945  0.13471  1.0000
  O  Te16      1.0  0.13286  0.93191  0.39420  1.0000
  H   H112      1.0  0.96497  0.82259  0.35211  1.0000
  Mg  Mg8       1.0  0.16201  0.99995  0.27215  1.0000
