data_image0
_chemical_formula_structural       N6C24N6C18H12C2HO2C2HO2C2HO2C2HO2C2HO2C2HO2N6C24N6C18H12C2HO2C2HO2C2HO2C2HO2C2HO2C2HO2SnCSn2CSnTe4Mg2SnCSn2CSnTe4Mg2SnCSn2CSnTe4Mg2SnCSn2CSnTe4Mg2SnCSn2CSnTe4Mg2SnCSn2CSnTe4Mg2
_chemical_formula_sum              "N24 C120 H36 O24 Sn24 Te24 Mg12"
_cell_length_a       36.2075
_cell_length_b       36.2459
_cell_length_c       7.89837
_cell_angle_alpha    115.138
_cell_angle_beta     89.5578
_cell_angle_gamma    120.409

_symmetry_space_group_name_H-M    'P1'
_space_group_IT_number       1

loop_
  _space_group_symop_operation_xyz
  'x, y, z'

loop_
  _atom_site_type_symbol
  _atom_site_label
  _atom_site_symmetry_multiplicity
  _atom_site_fract_x
  _atom_site_fract_y
  _atom_site_fract_z
  _atom_site_occupancy
  N   N1        1.0  0.44510  0.55321  0.25546  1.0000
  N   N2        1.0  0.44856  0.88950  0.24334  1.0000
  N   N3        1.0  0.10867  0.55496  0.24882  1.0000
  N   N4        1.0  0.55284  0.44407  0.25416  1.0000
  N   N5        1.0  0.55383  0.10665  0.24111  1.0000
  N   N6        1.0  0.89088  0.44737  0.25666  1.0000
  C   C1        1.0  0.53871  0.53755  0.24498  1.0000
  C   C2        1.0  0.46304  0.00068  0.27224  1.0000
  C   C3        1.0  0.00016  0.46290  0.26728  1.0000
  C   C4        1.0  0.45922  0.45969  0.26529  1.0000
  C   C5        1.0  0.53966  0.99512  0.20948  1.0000
  C   C6        1.0  0.99939  0.53980  0.23896  1.0000
  C   C7        1.0  0.53647  0.49826  0.24770  1.0000
  C   C8        1.0  0.50105  0.03666  0.25517  1.0000
  C   C9        1.0  0.96239  0.46419  0.25984  1.0000
  C   C10       1.0  0.46143  0.49895  0.26209  1.0000
  C   C11       1.0  0.50162  0.95907  0.22635  1.0000
  C   C12       1.0  0.03726  0.53871  0.24754  1.0000
  C   C13       1.0  0.49829  0.46091  0.25839  1.0000
  C   C14       1.0  0.53795  0.03399  0.22460  1.0000
  C   C15       1.0  0.96187  0.50093  0.24458  1.0000
  C   C16       1.0  0.49965  0.53637  0.25237  1.0000
  C   C17       1.0  0.46482  0.96192  0.25746  1.0000
  C   C18       1.0  0.03754  0.50157  0.26017  1.0000
  C   C19       1.0  0.35422  0.70452  0.22303  1.0000
  C   C20       1.0  0.29066  0.64234  0.22707  1.0000
  C   C21       1.0  0.35365  0.64242  0.23348  1.0000
  C   C22       1.0  0.64557  0.29280  0.27072  1.0000
  C   C23       1.0  0.70847  0.35623  0.26945  1.0000
  C   C24       1.0  0.64459  0.35432  0.26203  1.0000
  N   N7        1.0  0.31092  0.68446  0.21956  1.0000
  N   N8        1.0  0.31044  0.61969  0.23279  1.0000
  N   N9        1.0  0.37704  0.68499  0.22975  1.0000
  N   N10       1.0  0.68895  0.31390  0.27530  1.0000
  N   N11       1.0  0.68784  0.37804  0.26392  1.0000
  N   N12       1.0  0.62189  0.31151  0.26420  1.0000
  C   C25       1.0  0.62214  0.24533  0.26847  1.0000
  C   C26       1.0  0.75549  0.37995  0.26654  1.0000
  C   C27       1.0  0.62064  0.37692  0.25715  1.0000
  C   C28       1.0  0.64254  0.42156  0.25564  1.0000
  C   C29       1.0  0.57558  0.21620  0.21848  1.0000
  C   C30       1.0  0.77808  0.35763  0.26124  1.0000
  C   C31       1.0  0.62067  0.44390  0.25581  1.0000
  C   C32       1.0  0.55284  0.17044  0.20738  1.0000
  C   C33       1.0  0.82232  0.37937  0.25715  1.0000
  C   C34       1.0  0.57559  0.42145  0.25615  1.0000
  C   C35       1.0  0.57674  0.15327  0.24952  1.0000
  C   C36       1.0  0.84543  0.42494  0.26162  1.0000
  C   C37       1.0  0.55317  0.37638  0.25593  1.0000
  C   C38       1.0  0.62346  0.18246  0.30270  1.0000
  C   C39       1.0  0.82314  0.44785  0.26870  1.0000
  C   C40       1.0  0.57574  0.35480  0.25745  1.0000
  C   C41       1.0  0.64569  0.22783  0.31036  1.0000
  C   C42       1.0  0.77867  0.42519  0.26975  1.0000
  H   H1        1.0  0.67724  0.43873  0.25394  1.0000
  H   H2        1.0  0.55731  0.22953  0.18433  1.0000
  H   H3        1.0  0.76035  0.32280  0.26084  1.0000
  H   H4        1.0  0.63811  0.47823  0.25365  1.0000
  H   H5        1.0  0.51689  0.14842  0.16765  1.0000
  H   H6        1.0  0.83901  0.36139  0.25242  1.0000
  H   H7        1.0  0.51856  0.35871  0.25658  1.0000
  H   H8        1.0  0.64211  0.16978  0.33821  1.0000
  H   H9        1.0  0.84031  0.48268  0.27049  1.0000
  H   H10       1.0  0.55872  0.32038  0.26029  1.0000
  H   H11       1.0  0.68178  0.25052  0.35100  1.0000
  H   H12       1.0  0.76126  0.44256  0.27302  1.0000
  C   C43       1.0  0.57155  0.48819  0.24142  1.0000
  C   C44       1.0  0.50800  0.42648  0.26678  1.0000
  H   H13       1.0  0.56845  0.56677  0.23728  1.0000
  O   O1        1.0  0.60870  0.51277  0.22683  1.0000
  O   O2        1.0  0.48286  0.39100  0.28675  1.0000
  C   C45       1.0  0.50994  0.08211  0.26198  1.0000
  C   C46       1.0  0.57171  0.07757  0.20899  1.0000
  H   H14       1.0  0.43429  0.00270  0.29533  1.0000
  O   O3        1.0  0.48448  0.09536  0.27918  1.0000
  O   O4        1.0  0.60684  0.08631  0.16972  1.0000
  C   C47       1.0  0.91813  0.43042  0.27301  1.0000
  C   C48       1.0  0.91646  0.49061  0.23737  1.0000
  H   H15       1.0  0.00032  0.43405  0.27842  1.0000
  O   O5        1.0  0.90785  0.39598  0.29969  1.0000
  O   O6        1.0  0.90378  0.51424  0.21704  1.0000
  C   C49       1.0  0.42619  0.50873  0.26553  1.0000
  C   C50       1.0  0.49003  0.57087  0.24413  1.0000
  H   H16       1.0  0.42939  0.43054  0.27282  1.0000
  O   O7        1.0  0.38869  0.48346  0.27528  1.0000
  O   O8        1.0  0.51544  0.60637  0.22473  1.0000
  C   C51       1.0  0.49237  0.91343  0.21968  1.0000
  C   C52       1.0  0.43100  0.91873  0.27452  1.0000
  H   H17       1.0  0.56841  0.99312  0.18650  1.0000
  O   O9        1.0  0.51723  0.89941  0.19995  1.0000
  O   O10       1.0  0.39596  0.91048  0.31408  1.0000
  C   C53       1.0  0.08190  0.57296  0.23835  1.0000
  C   C54       1.0  0.08258  0.51112  0.26322  1.0000
  H   H18       1.0  0.99915  0.56858  0.22779  1.0000
  O   O11       1.0  0.09284  0.60863  0.21979  1.0000
  O   O12       1.0  0.09450  0.48616  0.27604  1.0000
  N   N13       1.0  0.44779  0.55706  0.75183  1.0000
  N   N14       1.0  0.44517  0.89199  0.74554  1.0000
  N   N15       1.0  0.10968  0.55352  0.75164  1.0000
  N   N16       1.0  0.55568  0.44804  0.75051  1.0000
  N   N17       1.0  0.55006  0.10847  0.73803  1.0000
  N   N18       1.0  0.89165  0.44557  0.75655  1.0000
  C   C55       1.0  0.54153  0.54159  0.74107  1.0000
  C   C56       1.0  0.45938  0.00355  0.77719  1.0000
  C   C57       1.0  0.00096  0.46080  0.76728  1.0000
  C   C58       1.0  0.46232  0.46417  0.76488  1.0000
  C   C59       1.0  0.53569  0.99752  0.71095  1.0000
  C   C60       1.0  0.00043  0.53819  0.74246  1.0000
  C   C61       1.0  0.53936  0.50237  0.74442  1.0000
  C   C62       1.0  0.49727  0.03931  0.75816  1.0000
  C   C63       1.0  0.96318  0.46210  0.76002  1.0000
  C   C64       1.0  0.46448  0.50336  0.76149  1.0000
  C   C65       1.0  0.49779  0.96178  0.72955  1.0000
  C   C66       1.0  0.03820  0.53686  0.74970  1.0000
  C   C67       1.0  0.50129  0.46517  0.75605  1.0000
  C   C68       1.0  0.53395  0.03629  0.72574  1.0000
  C   C69       1.0  0.96294  0.49932  0.74786  1.0000
  C   C70       1.0  0.50251  0.54050  0.74904  1.0000
  C   C71       1.0  0.46105  0.96464  0.76180  1.0000
  C   C72       1.0  0.03855  0.49974  0.76216  1.0000
  C   C73       1.0  0.35407  0.70651  0.72218  1.0000
  C   C74       1.0  0.29157  0.64368  0.72861  1.0000
  C   C75       1.0  0.35549  0.64565  0.73540  1.0000
  C   C76       1.0  0.64530  0.29480  0.76980  1.0000
  C   C77       1.0  0.70921  0.35738  0.76979  1.0000
  C   C78       1.0  0.64630  0.35737  0.76200  1.0000
  N   N19       1.0  0.31077  0.68554  0.71932  1.0000
  N   N20       1.0  0.31234  0.62206  0.73497  1.0000
  N   N21       1.0  0.37791  0.68806  0.73020  1.0000
  N   N22       1.0  0.68873  0.31505  0.77579  1.0000
  N   N23       1.0  0.68953  0.38008  0.76340  1.0000
  N   N24       1.0  0.62264  0.31453  0.76361  1.0000
  C   C79       1.0  0.37726  0.75363  0.72146  1.0000
  C   C80       1.0  0.62063  0.24715  0.76583  1.0000
  C   C81       1.0  0.62312  0.38077  0.75788  1.0000
  C   C82       1.0  0.42377  0.78227  0.76566  1.0000
  C   C83       1.0  0.64464  0.42400  0.74563  1.0000
  C   C84       1.0  0.57403  0.21892  0.71646  1.0000
  C   C85       1.0  0.44635  0.82787  0.77535  1.0000
  C   C86       1.0  0.62297  0.44643  0.74350  1.0000
  C   C87       1.0  0.55045  0.17308  0.70489  1.0000
  C   C88       1.0  0.42235  0.84543  0.73782  1.0000
  C   C89       1.0  0.57853  0.42558  0.75378  1.0000
  C   C90       1.0  0.57355  0.15507  0.74630  1.0000
  C   C91       1.0  0.37565  0.81670  0.69030  1.0000
  C   C92       1.0  0.55665  0.38212  0.76590  1.0000
  C   C93       1.0  0.62026  0.18340  0.79913  1.0000
  C   C94       1.0  0.35360  0.77145  0.68371  1.0000
  C   C95       1.0  0.57893  0.36037  0.76857  1.0000
  C   C96       1.0  0.64332  0.22873  0.80675  1.0000
  H   H19       1.0  0.44202  0.76854  0.79629  1.0000
  H   H20       1.0  0.67883  0.43984  0.73644  1.0000
  H   H21       1.0  0.55634  0.23290  0.68299  1.0000
  H   H22       1.0  0.48226  0.84949  0.81094  1.0000
  H   H23       1.0  0.64019  0.47958  0.73239  1.0000
  H   H24       1.0  0.51450  0.15156  0.66427  1.0000
  H   H25       1.0  0.35690  0.82977  0.65917  1.0000
  H   H26       1.0  0.52260  0.36572  0.77462  1.0000
  H   H27       1.0  0.63834  0.17014  0.83436  1.0000
  H   H28       1.0  0.31754  0.74915  0.64794  1.0000
  H   H29       1.0  0.56226  0.32721  0.78081  1.0000
  H   H30       1.0  0.67942  0.25069  0.84657  1.0000
  C   C97       1.0  0.57443  0.49224  0.73849  1.0000
  C   C98       1.0  0.51087  0.43056  0.76360  1.0000
  H   H31       1.0  0.57129  0.57059  0.73238  1.0000
  O   O13       1.0  0.61168  0.51697  0.72518  1.0000
  O   O14       1.0  0.48554  0.39509  0.78337  1.0000
  C   C99       1.0  0.50634  0.08465  0.76267  1.0000
  C   C100      1.0  0.56755  0.07921  0.70659  1.0000
  H   H32       1.0  0.43081  0.00581  0.80194  1.0000
  O   O15       1.0  0.48131  0.09843  0.78080  1.0000
  O   O16       1.0  0.60239  0.08719  0.66504  1.0000
  C   C101      1.0  0.91858  0.42797  0.77015  1.0000
  C   C102      1.0  0.91776  0.48950  0.74278  1.0000
  H   H33       1.0  0.00104  0.43173  0.77659  1.0000
  O   O17       1.0  0.90776  0.39279  0.79227  1.0000
  O   O18       1.0  0.90572  0.51423  0.72844  1.0000
  C   C103      1.0  0.42940  0.51344  0.76791  1.0000
  C   C104      1.0  0.49259  0.57463  0.73874  1.0000
  H   H34       1.0  0.43269  0.43512  0.77406  1.0000
  O   O19       1.0  0.39247  0.48921  0.78505  1.0000
  O   O20       1.0  0.51748  0.60981  0.71670  1.0000
  C   C105      1.0  0.48890  0.91631  0.72232  1.0000
  C   C106      1.0  0.42734  0.92113  0.77786  1.0000
  H   H35       1.0  0.56430  0.99529  0.68638  1.0000
  O   O21       1.0  0.51428  0.90293  0.70236  1.0000
  O   O22       1.0  0.39220  0.91247  0.81683  1.0000
  C   C107      1.0  0.08256  0.57083  0.73804  1.0000
  C   C108      1.0  0.08378  0.50960  0.76596  1.0000
  H   H36       1.0  0.00026  0.56714  0.73236  1.0000
  O   O23       1.0  0.09298  0.60572  0.71422  1.0000
  O   O24       1.0  0.09606  0.48495  0.77909  1.0000
  C  Sn1       1.0  0.79238  0.36914  0.83591  1.0000
  C   C109      1.0  0.76446  0.38439  0.82295  1.0000
  C  Sn2       1.0  0.77624  0.41833  0.75856  1.0000
  C  Sn3       1.0  0.81676  0.43742  0.70591  1.0000
  C   C110      1.0  0.84465  0.42217  0.71885  1.0000
  C  Sn4       1.0  0.83290  0.38823  0.78326  1.0000
  O  Te1       1.0  0.77994  0.33517  0.90065  1.0000
  O  Te2       1.0  0.74779  0.43303  0.74689  1.0000
  O  Te3       1.0  0.82919  0.47141  0.64114  1.0000
  O  Te4       1.0  0.86133  0.37353  0.79491  1.0000
  Mg  Mg1       1.0  0.77932  0.48009  0.65014  1.0000
  Mg  Mg2       1.0  0.82982  0.32645  0.89154  1.0000
  C  Sn5       1.0  0.42424  0.62934  0.17053  1.0000
  C   C111      1.0  0.38103  0.61479  0.18505  1.0000
  C  Sn6       1.0  0.35821  0.58163  0.25304  1.0000
  C  Sn7       1.0  0.37903  0.56265  0.30779  1.0000
  C   C112      1.0  0.42222  0.57721  0.29329  1.0000
  C  Sn8       1.0  0.44507  0.61035  0.22528  1.0000
  O  Te5       1.0  0.44643  0.66252  0.10218  1.0000
  O  Te6       1.0  0.31502  0.56762  0.26621  1.0000
  O  Te7       1.0  0.35680  0.52944  0.37617  1.0000
  O  Te8       1.0  0.48823  0.62437  0.21213  1.0000
  Mg  Mg3       1.0  0.29848  0.52150  0.36799  1.0000
  Mg  Mg4       1.0  0.50481  0.67051  0.11046  1.0000
  C  Sn9       1.0  0.36876  0.55058  0.67609  1.0000
  C   C113      1.0  0.41380  0.56910  0.69044  1.0000
  C  Sn10      1.0  0.44429  0.61869  0.75004  1.0000
  C  Sn11      1.0  0.42946  0.65044  0.79639  1.0000
  C   C114      1.0  0.38445  0.63193  0.78207  1.0000
  C  Sn12      1.0  0.35393  0.58234  0.72244  1.0000
  O  Te9       1.0  0.33886  0.50089  0.61620  1.0000
  O  Te10      1.0  0.48915  0.63634  0.76322  1.0000
  O  Te11      1.0  0.45940  0.70017  0.85631  1.0000
  O  Te12      1.0  0.30910  0.56468  0.70928  1.0000
  Mg  Mg5       1.0  0.51710  0.70686  0.85172  1.0000
  Mg  Mg6       1.0  0.28113  0.49418  0.62090  1.0000
  C  Sn13      1.0  0.37123  0.81152  0.23678  1.0000
  C   C115      1.0  0.41711  0.84344  0.27547  1.0000
  C  Sn14      1.0  0.44511  0.82745  0.27336  1.0000
  C  Sn15      1.0  0.42689  0.77851  0.23159  1.0000
  C   C116      1.0  0.38104  0.74662  0.19290  1.0000
  C  Sn16      1.0  0.35301  0.76258  0.19501  1.0000
  O  Te13      1.0  0.34386  0.82830  0.23966  1.0000
  O  Te14      1.0  0.49087  0.86005  0.31255  1.0000
  O  Te15      1.0  0.45430  0.76175  0.22873  1.0000
  O  Te16      1.0  0.30727  0.73001  0.15581  1.0000
  Mg  Mg7       1.0  0.51447  0.81994  0.29135  1.0000
  Mg  Mg8       1.0  0.28364  0.77007  0.17688  1.0000
  C  Sn17      1.0  0.18975  0.56417  0.30342  1.0000
  C   C117      1.0  0.16208  0.58007  0.29584  1.0000
  C  Sn18      1.0  0.17408  0.61500  0.23681  1.0000
  C  Sn19      1.0  0.21456  0.63444  0.18414  1.0000
  C   C118      1.0  0.24219  0.61855  0.19170  1.0000
  C  Sn20      1.0  0.23022  0.58361  0.25075  1.0000
  O  Te17      1.0  0.17709  0.52921  0.36286  1.0000
  O  Te18      1.0  0.14589  0.63034  0.23046  1.0000
  O  Te19      1.0  0.22720  0.66943  0.12468  1.0000
  O  Te20      1.0  0.25839  0.56828  0.25708  1.0000
  Mg  Mg9       1.0  0.17765  0.67869  0.13978  1.0000
  Mg  Mg10      1.0  0.22665  0.51991  0.34764  1.0000
  C  Sn21      1.0  0.18325  0.62072  0.68578  1.0000
  C   C119      1.0  0.15625  0.57770  0.69569  1.0000
  C  Sn22      1.0  0.17494  0.55680  0.74447  1.0000
  C  Sn23      1.0  0.22159  0.57939  0.78430  1.0000
  C   C120      1.0  0.24856  0.62239  0.77441  1.0000
  C  Sn24      1.0  0.22990  0.64332  0.72561  1.0000
  O  Te21      1.0  0.16385  0.64098  0.63674  1.0000
  O  Te22      1.0  0.14727  0.51376  0.75338  1.0000
  O  Te23      1.0  0.24098  0.55909  0.83336  1.0000
  O  Te24      1.0  0.25754  0.68633  0.71672  1.0000
  Mg  Mg11      1.0  0.18941  0.50019  0.82667  1.0000
  Mg  Mg12      1.0  0.21544  0.69995  0.64355  1.0000
