data_image0
_chemical_formula_structural       C4H4C2H2CH3C3HC4H2C2H2C7NCHC4NC3H4C4H4C3NCHC2NCH2C2HNC4H2C2H4C3NC3HC4NC3H2C6H4C5NCHC2NC3H2C2HNC4H2C4H4C2H2CHC2H2CHC4H2CHCHN2C2Sn2C2HTe2HMgC2Sn2C2HTe2HMgC2Sn2C2HTe2HMgC2Sn2C2HTe2HMgC2Sn2C2HTe2HMgC2Sn2C2HTe2HMgC2Sn2C2HTe2HMgC2Sn2C2HTe2HMg
_chemical_formula_sum              "C134 H76 N12 Sn16 Te16 Mg8"
_cell_length_a       44.2568
_cell_length_b       23.3236
_cell_length_c       21.4302
_cell_angle_alpha    90.1959
_cell_angle_beta     89.791
_cell_angle_gamma    89.9468

_symmetry_space_group_name_H-M    'P1'
_space_group_IT_number       1

loop_
  _space_group_symop_operation_xyz
  'x, y, z'

loop_
  _atom_site_type_symbol
  _atom_site_label
  _atom_site_symmetry_multiplicity
  _atom_site_fract_x
  _atom_site_fract_y
  _atom_site_fract_z
  _atom_site_occupancy
  C   C1        1.0  0.07875  0.65890  0.47651  1.0000
  C   C2        1.0  0.10156  0.61789  0.47730  1.0000
  C   C3        1.0  0.18292  0.46864  0.43467  1.0000
  C   C4        1.0  0.20521  0.42659  0.43486  1.0000
  H   H1        1.0  0.89679  0.74283  0.60151  1.0000
  H   H2        1.0  0.85686  0.66771  0.60468  1.0000
  H   H3        1.0  0.81894  0.49578  0.59153  1.0000
  H   H4        1.0  0.77962  0.42126  0.58886  1.0000
  C   C5        1.0  0.29516  0.30347  0.36351  1.0000
  C   C6        1.0  0.27409  0.30409  0.41187  1.0000
  H   H5        1.0  0.55767  0.45355  0.20569  1.0000
  H   H6        1.0  0.59856  0.45974  0.28486  1.0000
  C   C7        1.0  0.35135  0.38316  0.68625  1.0000
  H   H7        1.0  0.35514  0.41233  0.64677  1.0000
  H   H8        1.0  0.81763  0.21117  0.38274  1.0000
  H   H9        1.0  0.77740  0.28549  0.38582  1.0000
  C   C8        1.0  0.42311  0.41743  0.77167  1.0000
  C   C9        1.0  0.40033  0.41755  0.72703  1.0000
  C   C10       1.0  0.34942  0.38835  0.28955  1.0000
  H   H10       1.0  0.35223  0.42011  0.32720  1.0000
  C   C11       1.0  0.06370  0.80535  0.51903  1.0000
  C   C12       1.0  0.09441  0.82447  0.50400  1.0000
  C   C13       1.0  0.06487  0.90436  0.52089  1.0000
  C   C14       1.0  0.09508  0.88312  0.50511  1.0000
  H   H11       1.0  0.11295  0.79614  0.49183  1.0000
  H   H12       1.0  0.11422  0.91016  0.49385  1.0000
  C   C15       1.0  0.57733  0.42570  0.20229  1.0000
  C   C16       1.0  0.60027  0.42905  0.24656  1.0000
  H   H13       1.0  0.30431  0.26333  0.34567  1.0000
  H   H14       1.0  0.26693  0.26368  0.43223  1.0000
  C   C17       1.0  0.81213  0.23325  0.42612  1.0000
  C   C18       1.0  0.78958  0.27504  0.42830  1.0000
  C   C19       1.0  0.85029  0.57854  0.52670  1.0000
  C   C20       1.0  0.56601  0.38941  0.03962  1.0000
  C   C21       1.0  0.55605  0.38520  0.10290  1.0000
  C   C22       1.0  0.57965  0.38735  0.15163  1.0000
  C   C23       1.0  0.62564  0.39275  0.24264  1.0000
  N   N1        1.0  0.66994  0.35645  0.29363  1.0000
  C   C24       1.0  0.40426  0.41519  0.01936  1.0000
  H   H15       1.0  0.38700  0.42932  0.92422  1.0000
  C   C25       1.0  0.02341  0.72894  0.52358  1.0000
  C   C26       1.0  0.01390  0.67090  0.53819  1.0000
  C   C27       1.0  0.07776  0.70282  0.52190  1.0000
  C   C28       1.0  0.12357  0.61863  0.52469  1.0000
  N   N2        1.0  0.15035  0.53610  0.48576  1.0000
  C   C29       1.0  0.17302  0.49440  0.49058  1.0000
  C   C30       1.0  0.21824  0.40768  0.49087  1.0000
  C   C31       1.0  0.94371  0.75050  0.52154  1.0000
  H   H16       1.0  0.02869  0.63519  0.54855  1.0000
  H   H17       1.0  0.83280  0.58479  0.56277  1.0000
  H   H18       1.0  0.44292  0.44454  0.76616  1.0000
  H   H19       1.0  0.40229  0.44462  0.68593  1.0000
  C   C32       1.0  0.89653  0.70857  0.56700  1.0000
  C   C33       1.0  0.87421  0.66658  0.56851  1.0000
  C   C34       1.0  0.81251  0.47683  0.54704  1.0000
  C   C35       1.0  0.79038  0.43423  0.54547  1.0000
  H   H20       1.0  0.06168  0.65841  0.44012  1.0000
  H   H21       1.0  0.10299  0.58464  0.44166  1.0000
  H   H22       1.0  0.17253  0.48260  0.39142  1.0000
  H   H23       1.0  0.21228  0.40747  0.39083  1.0000
  C   C36       1.0  0.85276  0.13809  0.51978  1.0000
  C   C37       1.0  0.56638  0.38536  0.93799  1.0000
  C   C38       1.0  0.55674  0.37724  0.87508  1.0000
  N   N3        1.0  0.67276  0.34116  0.68641  1.0000
  C   C39       1.0  0.40454  0.41447  0.95540  1.0000
  H   H24       1.0  0.38642  0.43040  0.05001  1.0000
  C   C40       1.0  0.02562  0.98220  0.52901  1.0000
  C   C41       1.0  0.01677  0.03987  0.54727  1.0000
  N   N4        1.0  0.15087  0.17508  0.48653  1.0000
  C   C42       1.0  0.94568  0.96514  0.52371  1.0000
  H   H25       1.0  0.03193  0.07426  0.56038  1.0000
  H   H26       1.0  0.83667  0.13650  0.55905  1.0000
  C   C43       1.0  0.23994  0.35588  0.49083  1.0000
  C   C44       1.0  0.04612  0.85545  0.52986  1.0000
  H   H27       1.0  0.02293  0.85654  0.54545  1.0000
  N   N5        1.0  0.54872  0.37466  0.98919  1.0000
  C   C45       1.0  0.52550  0.37943  0.12113  1.0000
  C   C46       1.0  0.51448  0.36184  0.18261  1.0000
  C   C47       1.0  0.52632  0.37198  0.85677  1.0000
  C   C48       1.0  0.51562  0.35221  0.79587  1.0000
  H   H28       1.0  0.53009  0.33640  0.75870  1.0000
  H   H29       1.0  0.52886  0.34842  0.22066  1.0000
  C   C49       1.0  0.29364  0.40700  0.36028  1.0000
  C   C50       1.0  0.27200  0.40700  0.40777  1.0000
  H   H30       1.0  0.60715  0.32189  0.10837  1.0000
  H   H31       1.0  0.64750  0.32594  0.18987  1.0000
  H   H32       1.0  0.83460  0.23821  0.57793  1.0000
  H   H33       1.0  0.79546  0.31395  0.58059  1.0000
  C   C51       1.0  0.14767  0.57594  0.52745  1.0000
  C   C52       1.0  0.43351  0.39335  0.03865  1.0000
  C   C53       1.0  0.44302  0.38703  0.10182  1.0000
  N   N6        1.0  0.32746  0.35190  0.28998  1.0000
  C   C54       1.0  0.30575  0.35510  0.33769  1.0000
  C   C55       1.0  0.26167  0.35570  0.43435  1.0000
  C   C56       1.0  0.59553  0.40993  0.01996  1.0000
  H   H34       1.0  0.61361  0.42035  0.92447  1.0000
  C   C57       1.0  0.97417  0.73025  0.52391  1.0000
  C   C58       1.0  0.98295  0.67172  0.53849  1.0000
  C   C59       1.0  0.91956  0.70660  0.52166  1.0000
  C   C60       1.0  0.87400  0.62201  0.52410  1.0000
  N   N7        1.0  0.84976  0.53599  0.48805  1.0000
  C   C61       1.0  0.82728  0.49394  0.49185  1.0000
  C   C62       1.0  0.78225  0.40712  0.48937  1.0000
  C   C63       1.0  0.05403  0.74767  0.52119  1.0000
  H   H35       1.0  0.96780  0.63666  0.54924  1.0000
  H   H36       1.0  0.16353  0.58047  0.56667  1.0000
  C   C64       1.0  0.39454  0.34827  0.83235  1.0000
  C   C65       1.0  0.37217  0.34744  0.78720  1.0000
  C   C66       1.0  0.10006  0.70408  0.56843  1.0000
  C   C67       1.0  0.12242  0.66215  0.57025  1.0000
  C   C68       1.0  0.18546  0.47463  0.54698  1.0000
  C   C69       1.0  0.20752  0.43192  0.54680  1.0000
  H   H37       1.0  0.93679  0.66095  0.44124  1.0000
  H   H38       1.0  0.89610  0.58628  0.44341  1.0000
  H   H39       1.0  0.83228  0.47702  0.39391  1.0000
  H   H40       1.0  0.79309  0.40089  0.39129  1.0000
  C   C70       1.0  0.14946  0.13469  0.52749  1.0000
  C   C71       1.0  0.43390  0.39203  0.93701  1.0000
  C   C72       1.0  0.44382  0.38374  0.87419  1.0000
  C   C73       1.0  0.42032  0.38332  0.82541  1.0000
  C   C74       1.0  0.37464  0.38266  0.73421  1.0000
  N   N8        1.0  0.32795  0.35021  0.68893  1.0000
  C   C75       1.0  0.59578  0.40721  0.95606  1.0000
  H   H41       1.0  0.61318  0.42613  0.05009  1.0000
  C   C76       1.0  0.97636  0.98340  0.52830  1.0000
  C   C77       1.0  0.98580  0.04063  0.54678  1.0000
  N   N9        1.0  0.85018  0.17537  0.47574  1.0000
  C   C78       1.0  0.82785  0.21776  0.48039  1.0000
  C   C79       1.0  0.78270  0.30403  0.48407  1.0000
  C   C80       1.0  0.05614  0.96238  0.52496  1.0000
  H   H42       1.0  0.97100  0.07582  0.55943  1.0000
  H   H43       1.0  0.16620  0.13055  0.56513  1.0000
  C   C81       1.0  0.76065  0.35531  0.48708  1.0000
  C   C82       1.0  0.95365  0.85749  0.52921  1.0000
  H   H44       1.0  0.97690  0.85654  0.54419  1.0000
  N   N10       1.0  0.45106  0.37946  0.98814  1.0000
  C   C83       1.0  0.47332  0.38028  0.12043  1.0000
  C   C84       1.0  0.48355  0.36228  0.18218  1.0000
  C   C85       1.0  0.47421  0.37542  0.85622  1.0000
  C   C86       1.0  0.48473  0.35430  0.79557  1.0000
  H   H45       1.0  0.47006  0.34054  0.75810  1.0000
  H   H46       1.0  0.46861  0.34925  0.21972  1.0000
  C   C87       1.0  0.91930  0.66195  0.47705  1.0000
  C   C88       1.0  0.89675  0.62059  0.47790  1.0000
  C   C89       1.0  0.82005  0.46513  0.43601  1.0000
  C   C90       1.0  0.79794  0.42293  0.43491  1.0000
  H   H47       1.0  0.09922  0.73781  0.60352  1.0000
  H   H48       1.0  0.13932  0.66285  0.60704  1.0000
  H   H49       1.0  0.17717  0.49145  0.59122  1.0000
  H   H50       1.0  0.21629  0.41647  0.59101  1.0000
  C   C91       1.0  0.60543  0.35181  0.14725  1.0000
  C   C92       1.0  0.62785  0.35395  0.19231  1.0000
  H   H51       1.0  0.30068  0.44724  0.33928  1.0000
  H   H52       1.0  0.26282  0.44765  0.42406  1.0000
  C   C93       1.0  0.64898  0.37330  0.68481  1.0000
  H   H53       1.0  0.64469  0.40266  0.64571  1.0000
  C   C94       1.0  0.82149  0.24754  0.53631  1.0000
  C   C95       1.0  0.79948  0.29017  0.53755  1.0000
  H   H54       1.0  0.39285  0.32118  0.87340  1.0000
  H   H55       1.0  0.35248  0.31980  0.79149  1.0000
  C   C96       1.0  0.64885  0.39459  0.29113  1.0000
  H   H56       1.0  0.64681  0.42898  0.32620  1.0000
  C   C97       1.0  0.93499  0.80861  0.51936  1.0000
  C   C98       1.0  0.90471  0.82988  0.50472  1.0000
  C   C99       1.0  0.93596  0.90760  0.51985  1.0000
  C   C100      1.0  0.90532  0.88851  0.50465  1.0000
  H   H57       1.0  0.88554  0.80285  0.49377  1.0000
  H   H58       1.0  0.88674  0.91682  0.49329  1.0000
  C   C101      1.0  0.50032  0.38599  0.89299  1.0000
  H   H59       1.0  0.50050  0.40546  0.93875  1.0000
  C   C102      1.0  0.49965  0.39034  0.08366  1.0000
  H   H60       1.0  0.49992  0.40719  0.03679  1.0000
  N   N11       1.0  0.99900  0.76393  0.51431  1.0000
  N   N12       1.0  0.00085  0.94885  0.51736  1.0000
  C   C103      1.0  0.90844  0.09167  0.47142  1.0000
  C   C104      1.0  0.88156  0.09451  0.50571  1.0000
  C  Sn1       1.0  0.87575  0.05470  0.55281  1.0000
  C  Sn2       1.0  0.89731  0.01130  0.56572  1.0000
  C   C105      1.0  0.92414  0.00885  0.53119  1.0000
  C   C106      1.0  0.92972  0.04889  0.48415  1.0000
  H   H61       1.0  0.91277  0.12267  0.43505  1.0000
  O  Te1       1.0  0.84878  0.05815  0.58660  1.0000
  O  Te2       1.0  0.89159  0.97098  0.61256  1.0000
  H   H62       1.0  0.95054  0.04670  0.45763  1.0000
  Mg  Mg1       1.0  0.85147  0.99341  0.64580  1.0000
  C   C107      1.0  0.27722  0.29517  0.58249  1.0000
  C   C108      1.0  0.26324  0.34189  0.55384  1.0000
  C  Sn3       1.0  0.27188  0.39780  0.56905  1.0000
  C  Sn4       1.0  0.29495  0.40698  0.61377  1.0000
  C   C109      1.0  0.30881  0.35995  0.64214  1.0000
  C   C110      1.0  0.29998  0.30418  0.62659  1.0000
  H   H63       1.0  0.27040  0.25202  0.57044  1.0000
  O  Te3       1.0  0.25767  0.44399  0.54000  1.0000
  O  Te4       1.0  0.30403  0.46241  0.62982  1.0000
  H   H64       1.0  0.31082  0.26802  0.64875  1.0000
  Mg  Mg2       1.0  0.27790  0.51147  0.57747  1.0000
  C   C111      1.0  0.08293  0.06524  0.47453  1.0000
  C   C112      1.0  0.08013  0.01625  0.51145  1.0000
  C  Sn5       1.0  0.10071  0.00582  0.55939  1.0000
  C  Sn6       1.0  0.12451  0.04526  0.57045  1.0000
  C   C113      1.0  0.12710  0.09416  0.53328  1.0000
  C   C114      1.0  0.10638  0.10417  0.48542  1.0000
  H   H65       1.0  0.06690  0.07300  0.43752  1.0000
  O  Te5       1.0  0.09711  0.95665  0.59582  1.0000
  O  Te6       1.0  0.14538  0.03590  0.61806  1.0000
  H   H66       1.0  0.10854  0.14212  0.45687  1.0000
  Mg  Mg3       1.0  0.13119  0.96271  0.65513  1.0000
  C   C115      1.0  0.71741  0.40904  0.57249  1.0000
  C   C116      1.0  0.73620  0.36566  0.54939  1.0000
  C  Sn7       1.0  0.73332  0.30960  0.57137  1.0000
  C  Sn8       1.0  0.71119  0.29685  0.61732  1.0000
  C   C117      1.0  0.69248  0.34055  0.64010  1.0000
  C   C118      1.0  0.69556  0.39650  0.61779  1.0000
  H   H67       1.0  0.71978  0.45233  0.55521  1.0000
  O  Te7       1.0  0.75230  0.26677  0.54780  1.0000
  O  Te8       1.0  0.70782  0.24118  0.64008  1.0000
  H   H68       1.0  0.68099  0.43007  0.63566  1.0000
  Mg  Mg4       1.0  0.73901  0.19750  0.59350  1.0000
  C   C119      1.0  0.59272  0.41345  0.73196  1.0000
  C   C120      1.0  0.62048  0.38483  0.73222  1.0000
  C  Sn9       1.0  0.62767  0.34750  0.78081  1.0000
  C  Sn10      1.0  0.60664  0.33873  0.82998  1.0000
  C   C121      1.0  0.57893  0.36753  0.82927  1.0000
  C   C122      1.0  0.57196  0.40480  0.78042  1.0000
  H   H69       1.0  0.58733  0.44226  0.69415  1.0000
  O  Te9       1.0  0.65551  0.31927  0.78036  1.0000
  O  Te10      1.0  0.61325  0.30164  0.87911  1.0000
  H   H70       1.0  0.55046  0.42692  0.78021  1.0000
  Mg  Mg5       1.0  0.65413  0.27301  0.85766  1.0000
  C   C123      1.0  0.18971  0.24916  0.42539  1.0000
  C   C124      1.0  0.17598  0.22171  0.47594  1.0000
  C  Sn11      1.0  0.18268  0.23858  0.53696  1.0000
  C  Sn12      1.0  0.20350  0.28378  0.54742  1.0000
  C   C125      1.0  0.21710  0.31099  0.49653  1.0000
  C   C126      1.0  0.21024  0.29376  0.43566  1.0000
  H   H71       1.0  0.18439  0.23585  0.37830  1.0000
  O  Te11      1.0  0.16877  0.21068  0.58693  1.0000
  O  Te12      1.0  0.21060  0.30151  0.60792  1.0000
  H   H72       1.0  0.22086  0.31505  0.39654  1.0000
  Mg  Mg6       1.0  0.18578  0.25026  0.66077  1.0000
  C   C127      1.0  0.71655  0.29930  0.40645  1.0000
  C   C128      1.0  0.73540  0.34355  0.42683  1.0000
  C  Sn13      1.0  0.73196  0.39893  0.40322  1.0000
  C  Sn14      1.0  0.70920  0.41008  0.35839  1.0000
  C   C129      1.0  0.69045  0.36553  0.33834  1.0000
  C   C130      1.0  0.69410  0.31027  0.36225  1.0000
  H   H73       1.0  0.71936  0.25655  0.42497  1.0000
  O  Te13      1.0  0.75099  0.44264  0.42407  1.0000
  O  Te14      1.0  0.70527  0.46503  0.33404  1.0000
  H   H74       1.0  0.67949  0.27602  0.34650  1.0000
  Mg  Mg7       1.0  0.73679  0.51041  0.37703  1.0000
  C   C131      1.0  0.37358  0.34631  0.17316  1.0000
  C   C132      1.0  0.37244  0.37587  0.22995  1.0000
  C  Sn15      1.0  0.39506  0.41511  0.24542  1.0000
  C  Sn16      1.0  0.41924  0.42487  0.20313  1.0000
  C   C133      1.0  0.42017  0.39512  0.14641  1.0000
  C   C134      1.0  0.39742  0.35593  0.13141  1.0000
  H   H75       1.0  0.35597  0.31602  0.16153  1.0000
  O  Te15      1.0  0.39357  0.44426  0.30237  1.0000
  O  Te16      1.0  0.44215  0.46387  0.21740  1.0000
  H   H76       1.0  0.39830  0.33308  0.08742  1.0000
  Mg  Mg8       1.0  0.43015  0.49313  0.30073  1.0000
