data_image0
_chemical_formula_structural       N3C3H3N5C3H3N2C2Sn2C2HTe2HMgC2Sn2C2HTe2HMgC2Sn2C2HTe2HMgC2Sn2C2HTe2HMgC2Sn2C2HTe2HMgC2Sn2C2HTe2HMgC2Sn2C2HTe2HMgC2Sn2C2HTe2HMgC2Sn2C2HTe2HMgC2Sn2C2HTe2HMgC2Sn2C2HTe2HMgC2Sn2C2HTe2HMg
_chemical_formula_sum              "N10 C54 H30 Sn24 Te24 Mg12"
_cell_length_a       20.8944
_cell_length_b       20.9961
_cell_length_c       8.39823
_cell_angle_alpha    91.2546
_cell_angle_beta     90.4749
_cell_angle_gamma    120.557

_symmetry_space_group_name_H-M    'P1'
_space_group_IT_number       1

loop_
  _space_group_symop_operation_xyz
  'x, y, z'

loop_
  _atom_site_type_symbol
  _atom_site_label
  _atom_site_symmetry_multiplicity
  _atom_site_fract_x
  _atom_site_fract_y
  _atom_site_fract_z
  _atom_site_occupancy
  N   N1        1.0  0.47914  0.49737  0.45305  1.0000
  N   N2        1.0  0.50836  0.97946  0.45026  1.0000
  N   N3        1.0  0.02433  0.52708  0.44359  1.0000
  C   C1        1.0  0.52518  0.50967  0.05980  1.0000
  C   C2        1.0  0.48692  0.01869  0.04885  1.0000
  C   C3        1.0  0.97932  0.47184  0.05541  1.0000
  H   H1        1.0  0.54585  0.55452  0.15092  1.0000
  H   H2        1.0  0.43979  0.99579  0.13004  1.0000
  H   H3        1.0  0.00445  0.45342  0.14535  1.0000
  N   N4        1.0  0.66335  0.33445  0.07156  1.0000
  N   N5        1.0  0.33769  0.66627  0.41218  1.0000
  N   N6        1.0  0.47464  0.49777  0.95374  1.0000
  N   N7        1.0  0.50098  0.97771  0.95520  1.0000
  N   N8        1.0  0.01743  0.51966  0.94922  1.0000
  C   C4        1.0  0.52797  0.50751  0.56186  1.0000
  C   C5        1.0  0.49476  0.02066  0.54421  1.0000
  C   C6        1.0  0.98588  0.47828  0.54791  1.0000
  H   H4        1.0  0.54654  0.55062  0.65665  1.0000
  H   H5        1.0  0.44793  0.99810  0.62603  1.0000
  H   H6        1.0  0.01122  0.45975  0.63712  1.0000
  N   N9        1.0  0.66982  0.33597  0.56988  1.0000
  N   N10       1.0  0.33079  0.66428  0.91090  1.0000
  C   C7        1.0  0.34432  0.54065  0.82259  1.0000
  C   C8        1.0  0.35856  0.60563  0.90331  1.0000
  C  Sn1       1.0  0.41022  0.62949  0.00502  1.0000
  C  Sn2       1.0  0.45897  0.60174  0.02604  1.0000
  C   C9        1.0  0.45479  0.55079  0.94466  1.0000
  C   C10       1.0  0.39239  0.51325  0.84321  1.0000
  H   H7        1.0  0.29606  0.51162  0.74403  1.0000
  O  Te1       1.0  0.42361  0.69432  0.08479  1.0000
  O  Te2       1.0  0.52154  0.63857  0.12693  1.0000
  H   H8        1.0  0.38140  0.46297  0.78066  1.0000
  Mg  Mg1       1.0  0.51613  0.72473  0.20949  1.0000
  C   C11       1.0  0.34482  0.80009  0.01856  1.0000
  C   C12       1.0  0.37193  0.76615  0.93542  1.0000
  C  Sn3       1.0  0.44006  0.79366  0.86039  1.0000
  C  Sn4       1.0  0.49245  0.87070  0.86900  1.0000
  C   C13       1.0  0.47535  0.91828  0.95256  1.0000
  C   C14       1.0  0.39647  0.87608  0.02716  1.0000
  H   H9        1.0  0.29195  0.77835  0.07636  1.0000
  O  Te3       1.0  0.45572  0.74490  0.77778  1.0000
  O  Te4       1.0  0.56098  0.89966  0.79515  1.0000
  H   H10       1.0  0.38367  0.91328  0.09161  1.0000
  Mg  Mg2       1.0  0.55662  0.81094  0.69671  1.0000
  C   C15       1.0  0.15450  0.52451  0.02527  1.0000
  C   C16       1.0  0.11470  0.55794  0.96602  1.0000
  C  Sn5       1.0  0.13917  0.61905  0.86935  1.0000
  C  Sn6       1.0  0.21547  0.66146  0.83148  1.0000
  C   C17       1.0  0.26537  0.64162  0.89127  1.0000
  C   C18       1.0  0.24029  0.58038  0.98793  1.0000
  H   H11       1.0  0.13510  0.47711  0.09999  1.0000
  O  Te5       1.0  0.08814  0.63762  0.81120  1.0000
  O  Te6       1.0  0.24142  0.72278  0.73509  1.0000
  H   H12       1.0  0.26874  0.55131  0.03371  1.0000
  Mg  Mg3       1.0  0.15041  0.72603  0.68455  1.0000
  C   C19       1.0  0.36538  0.51672  0.34295  1.0000
  C   C20       1.0  0.43370  0.53721  0.41641  1.0000
  C  Sn7       1.0  0.47317  0.60448  0.50192  1.0000
  C  Sn8       1.0  0.44354  0.65199  0.51393  1.0000
  C   C21       1.0  0.37512  0.63097  0.44011  1.0000
  C   C22       1.0  0.33610  0.56354  0.35480  1.0000
  H   H13       1.0  0.33516  0.46454  0.27702  1.0000
  O  Te7       1.0  0.54137  0.62411  0.57453  1.0000
  O  Te8       1.0  0.48182  0.71952  0.59870  1.0000
  H   H14       1.0  0.28318  0.54767  0.29802  1.0000
  Mg  Mg4       1.0  0.57265  0.72181  0.67683  1.0000
  C   C23       1.0  0.48708  0.84438  0.34494  1.0000
  C   C24       1.0  0.46805  0.89304  0.41652  1.0000
  C  Sn9       1.0  0.40302  0.86572  0.50355  1.0000
  C  Sn10      1.0  0.35629  0.78824  0.51903  1.0000
  C   C25       1.0  0.37584  0.74003  0.44706  1.0000
  C   C26       1.0  0.44103  0.76795  0.36020  1.0000
  H   H15       1.0  0.53753  0.86598  0.27780  1.0000
  O  Te9       1.0  0.38483  0.91511  0.57425  1.0000
  O  Te10      1.0  0.29098  0.75945  0.60539  1.0000
  H   H16       1.0  0.45577  0.73027  0.30488  1.0000
  Mg  Mg5       1.0  0.29001  0.84909  0.67985  1.0000
  C   C27       1.0  0.20145  0.65766  0.33247  1.0000
  C   C28       1.0  0.25077  0.63986  0.40390  1.0000
  C  Sn11      1.0  0.22380  0.57491  0.48869  1.0000
  C  Sn12      1.0  0.14598  0.52700  0.50198  1.0000
  C   C29       1.0  0.09709  0.54528  0.42999  1.0000
  C   C30       1.0  0.12468  0.61042  0.34547  1.0000
  H   H17       1.0  0.22278  0.70804  0.26700  1.0000
  O  Te11      1.0  0.27385  0.55798  0.55937  1.0000
  O  Te12      1.0  0.11752  0.46172  0.58598  1.0000
  H   H18       1.0  0.08648  0.62416  0.29009  1.0000
  Mg  Mg6       1.0  0.20806  0.46271  0.66141  1.0000
  C   C31       1.0  0.53235  0.37718  0.46474  1.0000
  C   C32       1.0  0.55193  0.44353  0.54644  1.0000
  C  Sn13      1.0  0.61681  0.47935  0.64087  1.0000
  C  Sn14      1.0  0.66285  0.44804  0.65349  1.0000
  C   C33       1.0  0.64280  0.38167  0.57119  1.0000
  C   C34       1.0  0.57774  0.34627  0.47707  1.0000
  H   H19       1.0  0.48203  0.34982  0.39184  1.0000
  O  Te13      1.0  0.63554  0.54559  0.72174  1.0000
  O  Te14      1.0  0.72803  0.48269  0.74700  1.0000
  H   H20       1.0  0.56262  0.29493  0.41374  1.0000
  Mg  Mg7       1.0  0.72988  0.57198  0.83440  1.0000
  C   C35       1.0  0.52121  0.16087  0.65667  1.0000
  C   C36       1.0  0.53217  0.11034  0.56758  1.0000
  C  Sn15      1.0  0.59583  0.13496  0.47684  1.0000
  C  Sn16      1.0  0.64941  0.21163  0.47554  1.0000
  C   C37       1.0  0.63796  0.26173  0.56516  1.0000
  C   C38       1.0  0.57405  0.23649  0.65550  1.0000
  H   H21       1.0  0.47178  0.14134  0.72664  1.0000
  O  Te15      1.0  0.60589  0.08373  0.38848  1.0000
  O  Te16      1.0  0.71355  0.23774  0.38594  1.0000
  H   H22       1.0  0.56560  0.27562  0.72454  1.0000
  Mg  Mg8       1.0  0.70226  0.14634  0.28513  1.0000
  C   C39       1.0  0.84665  0.36478  0.65934  1.0000
  C   C40       1.0  0.89616  0.42619  0.57318  1.0000
  C  Sn17      1.0  0.87032  0.46447  0.48458  1.0000
  C  Sn18      1.0  0.79345  0.44072  0.48247  1.0000
  C   C41       1.0  0.74438  0.37926  0.56916  1.0000
  C   C42       1.0  0.77083  0.34134  0.65737  1.0000
  H   H23       1.0  0.86712  0.33547  0.72766  1.0000
  O  Te17      1.0  0.92054  0.52568  0.39913  1.0000
  O  Te18      1.0  0.76613  0.47798  0.39497  1.0000
  H   H24       1.0  0.73249  0.29383  0.72415  1.0000
  Mg  Mg9       1.0  0.85646  0.55829  0.29785  1.0000
  C   C43       1.0  0.66053  0.46339  0.16600  1.0000
  C   C44       1.0  0.63625  0.39335  0.09721  1.0000
  C  Sn19      1.0  0.57121  0.35804  0.00318  1.0000
  C  Sn20      1.0  0.54038  0.40775  0.97773  1.0000
  C   C45       1.0  0.55465  0.46376  0.04698  1.0000
  C   C46       1.0  0.61979  0.49857  0.14090  1.0000
  H   H25       1.0  0.71096  0.49034  0.23860  1.0000
  O  Te19      1.0  0.55825  0.30214  0.93540  1.0000
  O  Te20      1.0  0.47520  0.37374  0.88422  1.0000
  H   H26       1.0  0.63861  0.55282  0.19406  1.0000
  Mg  Mg10      1.0  0.46587  0.27830  0.81736  1.0000
  C   C47       1.0  0.61850  0.15383  0.96351  1.0000
  C   C48       1.0  0.54172  0.09317  0.04014  1.0000
  C  Sn21      1.0  0.50642  0.12295  0.12922  1.0000
  C  Sn22      1.0  0.53818  0.20083  0.14156  1.0000
  C   C49       1.0  0.60445  0.24696  0.06436  1.0000
  C   C50       1.0  0.64984  0.23065  0.97557  1.0000
  H   H27       1.0  0.64546  0.13032  0.89474  1.0000
  O  Te21      1.0  0.44027  0.07561  0.20508  1.0000
  O  Te22      1.0  0.50405  0.23207  0.22978  1.0000
  H   H28       1.0  0.70111  0.26673  0.91616  1.0000
  Mg  Mg11      1.0  0.41467  0.14462  0.31154  1.0000
  C   C51       1.0  0.80287  0.45187  0.97670  1.0000
  C   C52       1.0  0.74081  0.37185  0.04679  1.0000
  C  Sn23      1.0  0.76500  0.33203  0.13484  1.0000
  C  Sn24      1.0  0.84225  0.35887  0.15289  1.0000
  C   C53       1.0  0.89336  0.42491  0.08239  1.0000
  C   C54       1.0  0.87907  0.47840  0.99449  1.0000
  H   H29       1.0  0.78368  0.48238  0.90875  1.0000
  O  Te23      1.0  0.71276  0.26624  0.20402  1.0000
  O  Te24      1.0  0.86795  0.32018  0.24032  1.0000
  H   H30       1.0  0.91899  0.52947  0.94032  1.0000
  Mg  Mg12      1.0  0.77514  0.23330  0.31194  1.0000
