data_image0
_chemical_formula_structural       O6C12H6C6N6H6CHC2H2C2HC7H6C18H12S6C6H12C6H18O6C12H6C6N6H6C5H5C10H10C10H5C11H6C18H12S6C6H12C6H18C2Sn2C2HTe2HMgC2Sn2C2HTe2HMgC2Sn2C2HTe2HMgC2Sn2C2HTe2HMgC2Sn2C2HTe2HMgC2Sn2C2HTe2HMg
_chemical_formula_sum              "O12 C168 H156 N12 S12 Sn12 Te12 Mg6"
_cell_length_a       37.3681
_cell_length_b       37.2566
_cell_length_c       9.13531
_cell_angle_alpha    117.916
_cell_angle_beta     56.628
_cell_angle_gamma    119.39

_symmetry_space_group_name_H-M    'P1'
_space_group_IT_number       1

loop_
  _space_group_symop_operation_xyz
  'x, y, z'

loop_
  _atom_site_type_symbol
  _atom_site_label
  _atom_site_symmetry_multiplicity
  _atom_site_fract_x
  _atom_site_fract_y
  _atom_site_fract_z
  _atom_site_occupancy
  O   O1        1.0  0.41254  0.71804  0.00700  1.0000
  O   O2        1.0  0.28076  0.69366  0.96461  1.0000
  O   O3        1.0  0.29756  0.58309  0.02321  1.0000
  O   O4        1.0  0.58202  0.27962  0.99828  1.0000
  O   O5        1.0  0.71229  0.30270  0.04758  1.0000
  O   O6        1.0  0.69631  0.41513  0.99916  1.0000
  C   C1        1.0  0.37415  0.69353  0.00357  1.0000
  C   C2        1.0  0.30390  0.68001  0.97748  1.0000
  C   C3        1.0  0.31269  0.62103  0.01236  1.0000
  C   C4        1.0  0.62002  0.30404  0.00508  1.0000
  C   C5        1.0  0.68944  0.31681  0.03530  1.0000
  C   C6        1.0  0.68102  0.37676  0.00588  1.0000
  C   C7        1.0  0.35548  0.65043  0.02260  1.0000
  C   C8        1.0  0.34793  0.70759  0.98066  1.0000
  C   C9        1.0  0.28768  0.63655  0.98792  1.0000
  C   C10       1.0  0.63875  0.34761  0.99051  1.0000
  C   C11       1.0  0.64587  0.28933  0.02726  1.0000
  C   C12       1.0  0.70558  0.36073  0.03027  1.0000
  H   H1        1.0  0.41341  0.66125  0.04866  1.0000
  H   H2        1.0  0.34329  0.75809  0.94726  1.0000
  H   H3        1.0  0.23575  0.57596  0.98627  1.0000
  H   H4        1.0  0.58202  0.33770  0.95812  1.0000
  H   H5        1.0  0.65055  0.23842  0.05698  1.0000
  H   H6        1.0  0.75710  0.42150  0.03827  1.0000
  C   C13       1.0  0.38123  0.63814  0.04608  1.0000
  C   C14       1.0  0.36401  0.74850  0.96282  1.0000
  C   C15       1.0  0.24693  0.60823  0.97750  1.0000
  C   C16       1.0  0.61392  0.36058  0.96466  1.0000
  C   C17       1.0  0.62993  0.24802  0.04088  1.0000
  C   C18       1.0  0.74601  0.38895  0.04368  1.0000
  N   N1        1.0  0.36857  0.59942  0.06278  1.0000
  N   N2        1.0  0.40329  0.77666  0.96987  1.0000
  N   N3        1.0  0.22023  0.61952  0.96316  1.0000
  N   N4        1.0  0.62743  0.39975  0.95035  1.0000
  N   N5        1.0  0.59108  0.21952  0.03016  1.0000
  N   N6        1.0  0.77263  0.37706  0.05568  1.0000
  H   H7        1.0  0.33763  0.58004  0.05360  1.0000
  H   H8        1.0  0.41889  0.76350  0.99110  1.0000
  H   H9        1.0  0.23427  0.65192  0.96284  1.0000
  H   H10       1.0  0.65789  0.41863  0.96466  1.0000
  H   H11       1.0  0.57544  0.23261  0.00928  1.0000
  H   H12       1.0  0.75850  0.34444  0.05273  1.0000
  C   C19       1.0  0.60374  0.41691  0.93692  1.0000
  H   H13       1.0  0.65160  0.48015  0.97336  1.0000
  C   C20       1.0  0.62023  0.46107  0.95617  1.0000
  C   C21       1.0  0.56418  0.39211  0.90794  1.0000
  H   H14       1.0  0.55222  0.35747  0.88059  1.0000
  H   H15       1.0  0.50987  0.39226  0.88677  1.0000
  C   C22       1.0  0.54014  0.41185  0.91216  1.0000
  C   C23       1.0  0.59566  0.48040  0.96132  1.0000
  H   H16       1.0  0.60808  0.51492  0.98352  1.0000
  C   C24       1.0  0.55406  0.45656  0.94708  1.0000
  C   C25       1.0  0.47578  0.52576  0.03175  1.0000
  C   C26       1.0  0.47768  0.95196  0.96834  1.0000
  C   C27       1.0  0.04389  0.51537  0.97765  1.0000
  C   C28       1.0  0.52591  0.47837  0.97483  1.0000
  C   C29       1.0  0.51828  0.04353  0.02561  1.0000
  C   C30       1.0  0.95205  0.47483  0.00998  1.0000
  H   H17       1.0  0.41884  0.48191  0.18434  1.0000
  H   H18       1.0  0.53817  0.95650  0.96013  1.0000
  H   H19       1.0  0.03690  0.56883  0.97473  1.0000
  H   H20       1.0  0.58303  0.52275  0.82530  1.0000
  H   H21       1.0  0.45764  0.03886  0.03426  1.0000
  H   H22       1.0  0.95987  0.42048  0.00230  1.0000
  C   C31       1.0  0.45508  0.49058  0.10204  1.0000
  C   C32       1.0  0.51986  0.97469  0.97815  1.0000
  C   C33       1.0  0.01966  0.53618  0.98613  1.0000
  C   C34       1.0  0.54670  0.51375  0.90598  1.0000
  C   C35       1.0  0.47610  0.02075  0.01578  1.0000
  C   C36       1.0  0.97665  0.45350  0.99578  1.0000
  C   C37       1.0  0.52323  0.53727  0.92941  1.0000
  C   C38       1.0  0.45544  0.97645  0.98556  1.0000
  C   C39       1.0  0.02201  0.47087  0.96734  1.0000
  C   C40       1.0  0.47842  0.46681  0.07737  1.0000
  C   C41       1.0  0.54044  0.01902  0.00911  1.0000
  C   C42       1.0  0.97587  0.51736  0.99541  1.0000
  C   C43       1.0  0.55023  0.57318  0.84007  1.0000
  C   C44       1.0  0.41133  0.95905  0.97031  1.0000
  C   C45       1.0  0.04425  0.43825  0.90087  1.0000
  C   C46       1.0  0.45126  0.43037  0.16421  1.0000
  C   C47       1.0  0.58444  0.03646  0.02540  1.0000
  C   C48       1.0  0.95931  0.54284  0.97043  1.0000
  H   H23       1.0  0.57716  0.56438  0.70707  1.0000
  H   H24       1.0  0.40489  0.98522  0.97373  1.0000
  H   H25       1.0  0.02074  0.40631  0.86863  1.0000
  H   H26       1.0  0.47232  0.42149  0.18180  1.0000
  H   H27       1.0  0.58317  0.06153  0.15318  1.0000
  H   H28       1.0  0.98773  0.55946  0.86748  1.0000
  H   H29       1.0  0.42093  0.43683  0.80306  1.0000
  H   H30       1.0  0.57998  0.02528  0.63237  1.0000
  H   H31       1.0  0.95509  0.58084  0.74196  1.0000
  H   H32       1.0  0.52450  0.58064  0.33319  1.0000
  H   H33       1.0  0.41028  0.92569  0.37107  1.0000
  H   H34       1.0  0.01723  0.41459  0.47018  1.0000
  S   S1        1.0  0.57639  0.62009  0.98630  1.0000
  S   S2        1.0  0.36247  0.93453  0.15113  1.0000
  S   S3        1.0  0.06161  0.43809  0.05368  1.0000
  S   S4        1.0  0.42483  0.38445  0.01574  1.0000
  S   S5        1.0  0.63332  0.05860  0.83781  1.0000
  S   S6        1.0  0.93981  0.58517  0.17668  1.0000
  C   C49       1.0  0.60522  0.65989  0.86057  1.0000
  C   C50       1.0  0.31943  0.91825  0.07397  1.0000
  C   C51       1.0  0.09409  0.40100  0.88504  1.0000
  C   C52       1.0  0.40420  0.33983  0.10509  1.0000
  C   C53       1.0  0.67522  0.08491  0.93196  1.0000
  C   C54       1.0  0.95937  0.62886  0.08227  1.0000
  H   H35       1.0  0.62553  0.64596  0.71837  1.0000
  H   H36       1.0  0.31564  0.94703  0.08570  1.0000
  H   H37       1.0  0.09265  0.38512  0.96404  1.0000
  H   H38       1.0  0.38525  0.34951  0.25329  1.0000
  H   H39       1.0  0.66508  0.11069  0.05483  1.0000
  H   H40       1.0  0.97684  0.65753  0.16180  1.0000
  H   H41       1.0  0.37281  0.31403  0.56997  1.0000
  H   H42       1.0  0.70686  0.05508  0.24413  1.0000
  H   H43       1.0  0.93608  0.63325  0.53341  1.0000
  H   H44       1.0  0.61185  0.65230  0.26177  1.0000
  H   H45       1.0  0.32321  0.95101  0.52855  1.0000
  H   H46       1.0  0.11805  0.38277  0.14612  1.0000
  C   C55       1.0  0.63467  0.70022  0.94923  1.0000
  C   C56       1.0  0.27486  0.89021  0.18692  1.0000
  C   C57       1.0  0.14324  0.42206  0.76800  1.0000
  C   C58       1.0  0.44078  0.32285  0.05270  1.0000
  C   C59       1.0  0.72162  0.10255  0.78882  1.0000
  C   C60       1.0  0.92164  0.63644  0.08954  1.0000
  H   H47       1.0  0.66064  0.69336  0.94539  1.0000
  H   H48       1.0  0.26301  0.90712  0.33269  1.0000
  H   H49       1.0  0.16096  0.44676  0.85433  1.0000
  H   H50       1.0  0.46483  0.34714  0.11246  1.0000
  H   H51       1.0  0.72170  0.12629  0.74947  1.0000
  H   H52       1.0  0.89690  0.64466  0.23040  1.0000
  H   H53       1.0  0.45210  0.30908  0.41324  1.0000
  H   H54       1.0  0.69018  0.12495  0.37369  1.0000
  H   H55       1.0  0.86490  0.57056  0.56032  1.0000
  H   H56       1.0  0.53266  0.65548  0.40082  1.0000
  H   H57       1.0  0.34072  0.88153  0.40094  1.0000
  H   H58       1.0  0.10960  0.39352  0.45758  1.0000
  H   H59       1.0  0.65182  0.72492  0.87766  1.0000
  H   H60       1.0  0.24841  0.88092  0.14437  1.0000
  H   H61       1.0  0.16118  0.39824  0.67534  1.0000
  H   H62       1.0  0.42565  0.29490  0.10391  1.0000
  H   H63       1.0  0.74753  0.11821  0.84169  1.0000
  H   H64       1.0  0.93542  0.66302  0.03191  1.0000
  O   O7        1.0  0.41790  0.71813  0.47514  1.0000
  O   O8        1.0  0.28409  0.69639  0.45534  1.0000
  O   O9        1.0  0.29778  0.58703  0.53325  1.0000
  O   O10       1.0  0.58108  0.28365  0.52949  1.0000
  O   O11       1.0  0.71515  0.30852  0.55551  1.0000
  O   O12       1.0  0.69917  0.41610  0.47448  1.0000
  C   C61       1.0  0.37802  0.69501  0.48720  1.0000
  C   C62       1.0  0.30641  0.68293  0.47314  1.0000
  C   C63       1.0  0.31399  0.62461  0.51618  1.0000
  C   C64       1.0  0.62084  0.30735  0.51802  1.0000
  C   C65       1.0  0.69253  0.32117  0.53534  1.0000
  C   C66       1.0  0.68367  0.37861  0.49153  1.0000
  C   C67       1.0  0.35800  0.65281  0.51670  1.0000
  C   C68       1.0  0.35128  0.70986  0.47046  1.0000
  C   C69       1.0  0.28895  0.64032  0.49344  1.0000
  C   C70       1.0  0.63992  0.34959  0.49007  1.0000
  C   C71       1.0  0.64828  0.29314  0.53373  1.0000
  C   C72       1.0  0.70922  0.36380  0.51591  1.0000
  H   H65       1.0  0.41661  0.66154  0.53371  1.0000
  H   H66       1.0  0.34618  0.76000  0.43874  1.0000
  H   H67       1.0  0.23609  0.58062  0.50372  1.0000
  H   H68       1.0  0.58064  0.33917  0.47338  1.0000
  H   H69       1.0  0.65498  0.24289  0.55910  1.0000
  H   H70       1.0  0.76176  0.42397  0.50599  1.0000
  C   C73       1.0  0.38337  0.63970  0.53903  1.0000
  C   C74       1.0  0.36776  0.75026  0.44861  1.0000
  C   C75       1.0  0.24736  0.61243  0.49032  1.0000
  C   C76       1.0  0.61359  0.36173  0.46873  1.0000
  C   C77       1.0  0.63299  0.25235  0.55036  1.0000
  C   C78       1.0  0.75049  0.39239  0.52157  1.0000
  N   N7        1.0  0.36882  0.60135  0.56317  1.0000
  N   N8        1.0  0.40904  0.77745  0.43720  1.0000
  N   N9        1.0  0.22100  0.62251  0.46907  1.0000
  N   N10       1.0  0.62686  0.39991  0.44599  1.0000
  N   N11       1.0  0.59217  0.22456  0.55828  1.0000
  N   N12       1.0  0.77625  0.38274  0.54799  1.0000
  H   H71       1.0  0.33717  0.58317  0.55828  1.0000
  H   H72       1.0  0.42693  0.76323  0.43985  1.0000
  H   H73       1.0  0.23614  0.65319  0.45051  1.0000
  H   H74       1.0  0.65843  0.41880  0.45027  1.0000
  H   H75       1.0  0.57378  0.23876  0.55841  1.0000
  H   H76       1.0  0.76078  0.35184  0.56571  1.0000
  C   C79       1.0  0.39250  0.58427  0.57711  1.0000
  C   C80       1.0  0.42507  0.82054  0.44264  1.0000
  C   C81       1.0  0.17787  0.59637  0.47415  1.0000
  C   C82       1.0  0.60206  0.41616  0.43436  1.0000
  C   C83       1.0  0.57617  0.18133  0.55111  1.0000
  H   H77       1.0  0.34465  0.52091  0.54272  1.0000
  H   H78       1.0  0.49497  0.82457  0.32130  1.0000
  H   H79       1.0  0.17889  0.63038  0.33413  1.0000
  H   H80       1.0  0.64989  0.47958  0.46413  1.0000
  H   H81       1.0  0.50659  0.17794  0.67108  1.0000
  C   C84       1.0  0.37611  0.54017  0.55909  1.0000
  C   C85       1.0  0.47178  0.84212  0.37982  1.0000
  C   C86       1.0  0.15925  0.60443  0.39872  1.0000
  C   C87       1.0  0.61806  0.46014  0.45095  1.0000
  C   C88       1.0  0.52942  0.15999  0.61263  1.0000
  C   C89       1.0  0.43198  0.60928  0.60649  1.0000
  C   C90       1.0  0.39563  0.84361  0.51654  1.0000
  C   C91       1.0  0.15253  0.56264  0.55563  1.0000
  C   C92       1.0  0.56196  0.39079  0.40973  1.0000
  C   C93       1.0  0.60531  0.15785  0.47599  1.0000
  H   H82       1.0  0.44348  0.64394  0.63526  1.0000
  H   H83       1.0  0.35928  0.82798  0.57198  1.0000
  H   H84       1.0  0.16524  0.55671  0.62155  1.0000
  H   H85       1.0  0.55043  0.35621  0.38361  1.0000
  H   H86       1.0  0.64171  0.17328  0.42135  1.0000
  H   H87       1.0  0.48654  0.60965  0.62770  1.0000
  H   H88       1.0  0.38866  0.90446  0.59578  1.0000
  H   H89       1.0  0.09013  0.51339  0.63410  1.0000
  H   H90       1.0  0.50632  0.38971  0.39342  1.0000
  H   H91       1.0  0.61153  0.09643  0.39437  1.0000
  C   C94       1.0  0.45635  0.58982  0.60194  1.0000
  C   C95       1.0  0.41249  0.88699  0.52810  1.0000
  C   C96       1.0  0.10962  0.53762  0.56131  1.0000
  C   C97       1.0  0.53690  0.40984  0.41614  1.0000
  C   C98       1.0  0.58801  0.11430  0.46302  1.0000
  C   C99       1.0  0.40095  0.52111  0.55395  1.0000
  C   C100      1.0  0.48821  0.88547  0.39113  1.0000
  C   C101      1.0  0.11646  0.57874  0.40317  1.0000
  C   C102      1.0  0.59249  0.47875  0.45852  1.0000
  C   C103      1.0  0.51253  0.11657  0.60069  1.0000
  H   H92       1.0  0.38857  0.48661  0.53224  1.0000
  H   H93       1.0  0.52456  0.90117  0.33832  1.0000
  H   H94       1.0  0.10336  0.58482  0.33907  1.0000
  H   H95       1.0  0.60465  0.51317  0.47914  1.0000
  H   H96       1.0  0.47613  0.10117  0.65350  1.0000
  C   C104      1.0  0.44268  0.54511  0.56713  1.0000
  C   C105      1.0  0.45915  0.90932  0.46663  1.0000
  C   C106      1.0  0.09037  0.54471  0.48532  1.0000
  C   C107      1.0  0.55036  0.45446  0.44900  1.0000
  C   C108      1.0  0.54124  0.09234  0.52499  1.0000
  C   C109      1.0  0.47112  0.52348  0.53886  1.0000
  C   C110      1.0  0.47800  0.95585  0.48338  1.0000
  C   C111      1.0  0.04360  0.52021  0.50085  1.0000
  C   C112      1.0  0.52169  0.47604  0.47863  1.0000
  C   C113      1.0  0.52200  0.04580  0.50873  1.0000
  C   C114      1.0  0.95234  0.47999  0.53584  1.0000
  H   H97       1.0  0.41427  0.47888  0.68789  1.0000
  H   H98       1.0  0.53190  0.96254  0.52891  1.0000
  H   H99       1.0  0.03345  0.57706  0.54449  1.0000
  H   H100      1.0  0.57852  0.52068  0.32974  1.0000
  H   H101      1.0  0.46808  0.03916  0.46340  1.0000
  H   H102      1.0  0.96232  0.42317  0.49126  1.0000
  C   C115      1.0  0.45058  0.48794  0.60662  1.0000
  C   C116      1.0  0.51789  0.97909  0.51119  1.0000
  C   C117      1.0  0.01810  0.54272  0.52952  1.0000
  C   C118      1.0  0.54223  0.51162  0.41101  1.0000
  C   C119      1.0  0.48201  0.02259  0.48147  1.0000
  C   C120      1.0  0.97775  0.45748  0.50720  1.0000
  C   C121      1.0  0.51865  0.53533  0.43683  1.0000
  C   C122      1.0  0.45950  0.97894  0.46947  1.0000
  C   C123      1.0  0.02166  0.47628  0.49719  1.0000
  C   C124      1.0  0.47421  0.46433  0.58141  1.0000
  C   C125      1.0  0.54029  0.02273  0.52377  1.0000
  C   C126      1.0  0.97288  0.52454  0.55623  1.0000
  C   C127      1.0  0.54564  0.57201  0.35140  1.0000
  C   C128      1.0  0.41665  0.95984  0.44360  1.0000
  C   C129      1.0  0.03999  0.44746  0.49438  1.0000
  C   C130      1.0  0.44737  0.42798  0.66838  1.0000
  C   C131      1.0  0.58285  0.04162  0.55144  1.0000
  C   C132      1.0  0.94640  0.55403  0.63281  1.0000
  H   H103      1.0  0.57259  0.56362  0.21780  1.0000
  H   H104      1.0  0.41870  0.97648  0.36584  1.0000
  H   H105      1.0  0.03835  0.45613  0.63007  1.0000
  H   H106      1.0  0.46867  0.41916  0.68487  1.0000
  H   H107      1.0  0.58978  0.07589  0.62160  1.0000
  H   H108      1.0  0.91007  0.53719  0.69140  1.0000
  H   H109      1.0  0.42459  0.43909  0.29816  1.0000
  H   H110      1.0  0.59013  0.01073  0.02910  1.0000
  H   H111      1.0  0.93286  0.52195  0.92088  1.0000
  H   H112      1.0  0.52917  0.58130  0.81926  1.0000
  H   H113      1.0  0.41314  0.93516  0.83936  1.0000
  H   H114      1.0  0.07417  0.44220  0.77199  1.0000
  S   S7        1.0  0.57145  0.61788  0.50203  1.0000
  S   S8        1.0  0.36980  0.96746  0.67094  1.0000
  S   S9        1.0  0.09727  0.44515  0.32239  1.0000
  S   S10       1.0  0.42045  0.38203  0.52192  1.0000
  S   S11       1.0  0.62951  0.03246  0.32502  1.0000
  S   S12       1.0  0.95915  0.57633  0.46223  1.0000
  C   C133      1.0  0.59289  0.66225  0.40989  1.0000
  C   C134      1.0  0.32053  0.93680  0.61701  1.0000
  C   C135      1.0  0.08763  0.38830  0.26956  1.0000
  C   C136      1.0  0.39904  0.33843  0.61826  1.0000
  C   C137      1.0  0.67899  0.06202  0.37733  1.0000
  C   C138      1.0  0.92473  0.61211  0.61335  1.0000
  H   H115      1.0  0.61753  0.68687  0.46657  1.0000
  H   H116      1.0  0.29234  0.94349  0.74926  1.0000
  H   H117      1.0  0.05904  0.36969  0.23079  1.0000
  H   H118      1.0  0.38194  0.34985  0.76681  1.0000
  H   H119      1.0  0.67631  0.04740  0.46434  1.0000
  H   H120      1.0  0.93427  0.63214  0.72831  1.0000
  H   H121      1.0  0.37960  0.31518  0.04815  1.0000
  H   H122      1.0  0.67522  0.06160  0.97338  1.0000
  H   H123      1.0  0.98515  0.62189  0.94282  1.0000
  H   H124      1.0  0.57976  0.66685  0.86145  1.0000
  H   H125      1.0  0.33149  0.90077  0.92891  1.0000
  H   H126      1.0  0.07578  0.37613  0.80093  1.0000
  C   C139      1.0  0.55676  0.67957  0.46054  1.0000
  C   C140      1.0  0.31285  0.88858  0.53363  1.0000
  C   C141      1.0  0.08091  0.37473  0.41957  1.0000
  C   C142      1.0  0.43491  0.32005  0.56201  1.0000
  C   C143      1.0  0.68741  0.11030  0.46088  1.0000
  C   C144      1.0  0.87376  0.58921  0.67738  1.0000
  H   H127      1.0  0.53791  0.68946  0.60877  1.0000
  H   H128      1.0  0.30926  0.87397  0.62298  1.0000
  H   H129      1.0  0.05034  0.37968  0.54260  1.0000
  H   H130      1.0  0.46040  0.34403  0.61462  1.0000
  H   H131      1.0  0.66024  0.11759  0.59587  1.0000
  H   H132      1.0  0.86189  0.56708  0.75391  1.0000
  H   H133      1.0  0.45953  0.31314  0.90427  1.0000
  H   H134      1.0  0.73166  0.07691  0.66512  1.0000
  H   H135      1.0  0.90339  0.60781  0.01309  1.0000
  H   H136      1.0  0.61439  0.71379  0.09237  1.0000
  H   H137      1.0  0.27847  0.86085  0.17039  1.0000
  H   H138      1.0  0.14593  0.43732  0.68312  1.0000
  H   H139      1.0  0.57222  0.70751  0.40869  1.0000
  H   H140      1.0  0.28192  0.87265  0.51045  1.0000
  H   H141      1.0  0.07759  0.34066  0.37499  1.0000
  H   H142      1.0  0.41956  0.29266  0.61700  1.0000
  H   H143      1.0  0.71903  0.12579  0.47870  1.0000
  H   H144      1.0  0.85489  0.61234  0.76701  1.0000
  C   C145      1.0  0.83642  0.45761  0.13273  1.0000
  C   C146      1.0  0.81830  0.41385  0.06042  1.0000
  C  Sn1       1.0  0.74085  0.45062  0.97466  1.0000
  C  Sn2       1.0  0.78552  0.46758  0.96131  1.0000
  C   C147      1.0  0.90648  0.44737  0.03421  1.0000
  C   C148      1.0  0.88047  0.47436  0.11969  1.0000
  H   H145      1.0  0.81629  0.47849  0.19896  1.0000
  O  Te1       1.0  0.72222  0.40699  0.90309  1.0000
  O  Te2       1.0  0.81194  0.44106  0.87637  1.0000
  H   H146      1.0  0.89451  0.50823  0.17577  1.0000
  Mg  Mg1       1.0  0.77156  0.38380  0.79994  1.0000
  C   C149      1.0  0.15888  0.53759  0.88560  1.0000
  C   C150      1.0  0.17715  0.58218  0.93400  1.0000
  C  Sn3       1.0  0.25309  0.54374  0.01518  1.0000
  C  Sn4       1.0  0.20674  0.52422  0.04841  1.0000
  C   C151      1.0  0.08563  0.54360  0.99960  1.0000
  C   C152      1.0  0.11316  0.51831  0.91839  1.0000
  H   H147      1.0  0.18018  0.51801  0.82285  1.0000
  O  Te3       1.0  0.27190  0.58824  0.06262  1.0000
  O  Te4       1.0  0.17878  0.54903  0.12942  1.0000
  H   H148      1.0  0.09900  0.48378  0.88104  1.0000
  Mg  Mg2       1.0  0.22008  0.60838  0.16964  1.0000
  C   C153      1.0  0.85569  0.45345  0.46837  1.0000
  C   C154      1.0  0.82492  0.41644  0.52540  1.0000
  C  Sn5       1.0  0.83409  0.39981  0.60580  1.0000
  C  Sn6       1.0  0.87486  0.42071  0.62940  1.0000
  C   C155      1.0  0.90541  0.45774  0.57200  1.0000
  C   C156      1.0  0.89590  0.47409  0.49166  1.0000
  H   H149      1.0  0.84833  0.46612  0.40630  1.0000
  O  Te5       1.0  0.80298  0.36279  0.66194  1.0000
  O  Te6       1.0  0.88486  0.40479  0.70940  1.0000
  H   H150      1.0  0.91972  0.50277  0.44763  1.0000
  Mg  Mg3       1.0  0.83183  0.35343  0.76370  1.0000
  C   C157      1.0  0.44442  0.61112  0.09974  1.0000
  C   C158      1.0  0.40498  0.59112  0.07159  1.0000
  C  Sn7       1.0  0.38396  0.54697  0.04649  1.0000
  C  Sn8       1.0  0.40286  0.52247  0.04976  1.0000
  C   C159      1.0  0.44230  0.54279  0.07815  1.0000
  C   C160      1.0  0.46306  0.58698  0.10306  1.0000
  H   H151      1.0  0.46047  0.64532  0.11911  1.0000
  O  Te7       1.0  0.34459  0.52749  0.01846  1.0000
  O  Te8       1.0  0.38254  0.47830  0.02512  1.0000
  H   H152      1.0  0.49358  0.60246  0.12497  1.0000
  Mg  Mg4       1.0  0.22619  0.53042  0.99154  1.0000
  C   C161      1.0  0.46151  0.85889  0.04330  1.0000
  C   C162      1.0  0.32662  0.88897  0.97877  1.0000
  C  Sn9       1.0  0.31034  0.89501  0.88886  1.0000
  C  Sn10      1.0  0.32622  0.93582  0.86322  1.0000
  C   C163      1.0  0.35801  0.96956  0.92817  1.0000
  C   C164      1.0  0.47721  0.89914  0.01801  1.0000
  H   H153      1.0  0.47395  0.85394  0.11273  1.0000
  O  Te9       1.0  0.27862  0.86076  0.82531  1.0000
  O  Te10      1.0  0.31054  0.94273  0.77376  1.0000
  H   H154      1.0  0.50181  0.92541  0.06785  1.0000
  Mg  Mg5       1.0  0.26738  0.88608  0.71184  1.0000
  C   C165      1.0  0.57455  0.13154  0.13237  1.0000
  C   C166      1.0  0.54224  0.09767  0.07082  1.0000
  C  Sn11      1.0  0.42248  0.16761  0.98186  1.0000
  C  Sn12      1.0  0.43857  0.20822  0.95416  1.0000
  C   C167      1.0  0.57406  0.17787  0.01614  1.0000
  C   C168      1.0  0.59045  0.17161  0.10504  1.0000
  H   H155      1.0  0.58725  0.12669  0.20107  1.0000
  O  Te11      1.0  0.39020  0.13343  0.92129  1.0000
  O  Te12      1.0  0.42254  0.21501  0.86560  1.0000
  H   H156      1.0  0.61548  0.19783  0.15258  1.0000
  Mg  Mg6       1.0  0.37867  0.15852  0.80797  1.0000
