data_image0
_chemical_formula_structural       N2C6N2C2H4N2C6N2C2H4SnCSn2CSnTe4Mg2SnCSn2CSnTe4Mg2SnCSn2CSnTe4Mg2SnCSn2CSnTe4Mg2SnCSn2CSnTe4Mg2SnCSn2CSnTe4Mg2SnCSn2CSnTe4Mg2SnCSn2CSnTe4Mg2SnCSn2CSnTe4Mg2SnCSn2CSnTe4Mg2SnCSn2CSnTe4Mg2SnCSn2CSnTe4Mg2SnCSn2CSnTe4Mg2SnCSn2CSnTe4Mg2SnCSn2CSnTe4Mg2SnCSn2CSnTe4Mg2
_chemical_formula_sum              "N8 C48 H8 Sn64 Te64 Mg32"
_cell_length_a       19.4564
_cell_length_b       15.9889
_cell_length_c       10.931
_cell_angle_alpha    90.2718
_cell_angle_beta     93.8675
_cell_angle_gamma    90.0419

_symmetry_space_group_name_H-M    'P1'
_space_group_IT_number       1

loop_
  _space_group_symop_operation_xyz
  'x, y, z'

loop_
  _atom_site_type_symbol
  _atom_site_label
  _atom_site_symmetry_multiplicity
  _atom_site_fract_x
  _atom_site_fract_y
  _atom_site_fract_z
  _atom_site_occupancy
  N   N1        1.0  0.27996  0.22855  0.16053  1.0000
  N   N2        1.0  0.29267  0.74508  0.13917  1.0000
  C   C1        1.0  0.23497  0.26336  0.08461  1.0000
  C   C2        1.0  0.22919  0.75137  0.09688  1.0000
  C   C3        1.0  0.00722  0.54279  0.24685  1.0000
  C   C4        1.0  0.00780  0.45706  0.24688  1.0000
  C   C5        1.0  0.77954  0.74369  0.39228  1.0000
  C   C6        1.0  0.78218  0.26107  0.40855  1.0000
  N   N3        1.0  0.72121  0.74671  0.32884  1.0000
  N   N4        1.0  0.73808  0.22568  0.33158  1.0000
  C   C7        1.0  0.50902  0.04082  0.49256  1.0000
  C   C8        1.0  0.50737  0.95499  0.49431  1.0000
  H   H1        1.0  0.21525  0.20574  0.52778  1.0000
  H   H2        1.0  0.23845  0.73169  0.48091  1.0000
  H   H3        1.0  0.79032  0.78439  0.47283  1.0000
  H   H4        1.0  0.77586  0.26054  0.50791  1.0000
  N   N5        1.0  0.29423  0.25437  0.64767  1.0000
  N   N6        1.0  0.27756  0.77287  0.65516  1.0000
  C   C9        1.0  0.23151  0.25084  0.60042  1.0000
  C   C10       1.0  0.23416  0.73356  0.58078  1.0000
  C   C11       1.0  0.00865  0.54315  0.75242  1.0000
  C   C12       1.0  0.00809  0.45739  0.75105  1.0000
  C   C13       1.0  0.78217  0.73785  0.91314  1.0000
  C   C14       1.0  0.78105  0.25127  0.88593  1.0000
  N   N7        1.0  0.73861  0.77285  0.83534  1.0000
  N   N8        1.0  0.72208  0.25001  0.82442  1.0000
  C   C15       1.0  0.50783  0.04443  0.99411  1.0000
  C   C16       1.0  0.50932  0.95851  0.99346  1.0000
  H   H5        1.0  0.23814  0.25993  0.98451  1.0000
  H   H6        1.0  0.21190  0.79955  0.03021  1.0000
  H   H7        1.0  0.77478  0.73817  0.01213  1.0000
  H   H8        1.0  0.79229  0.20896  0.96398  1.0000
  C  Sn1       1.0  0.42655  0.89247  0.68633  1.0000
  C   C17       1.0  0.45708  0.89080  0.57423  1.0000
  C  Sn2       1.0  0.42320  0.85310  0.47152  1.0000
  C  Sn3       1.0  0.35742  0.81634  0.48103  1.0000
  C   C18       1.0  0.32693  0.81803  0.59308  1.0000
  C  Sn4       1.0  0.36077  0.85571  0.69585  1.0000
  O  Te1       1.0  0.46135  0.93050  0.78781  1.0000
  O  Te2       1.0  0.45477  0.85218  0.36044  1.0000
  O  Te3       1.0  0.32264  0.77829  0.37943  1.0000
  O  Te4       1.0  0.32924  0.85665  0.80687  1.0000
  Mg  Mg1       1.0  0.38681  0.79295  0.24816  1.0000
  Mg  Mg2       1.0  0.39713  0.91590  0.91919  1.0000
  C  Sn5       1.0  0.42741  0.22594  0.59444  1.0000
  C   C19       1.0  0.35640  0.21175  0.58157  1.0000
  C  Sn6       1.0  0.33072  0.13209  0.55178  1.0000
  C  Sn7       1.0  0.37698  0.06519  0.53456  1.0000
  C   C20       1.0  0.44794  0.07940  0.54745  1.0000
  C  Sn8       1.0  0.47367  0.15905  0.57723  1.0000
  O  Te5       1.0  0.45194  0.30609  0.62427  1.0000
  O  Te6       1.0  0.25952  0.11943  0.53937  1.0000
  O  Te7       1.0  0.35299  0.98500  0.50471  1.0000
  O  Te8       1.0  0.54482  0.17171  0.58966  1.0000
  Mg  Mg3       1.0  0.25174  0.99903  0.49788  1.0000
  Mg  Mg4       1.0  0.55326  0.29208  0.63120  1.0000
  C  Sn9       1.0  0.45720  0.80381  0.07432  1.0000
  C   C21       1.0  0.45300  0.88041  0.01322  1.0000
  C  Sn10      1.0  0.39112  0.92488  0.00376  1.0000
  C  Sn11      1.0  0.33221  0.89216  0.05655  1.0000
  C   C22       1.0  0.33643  0.81562  0.11762  1.0000
  C  Sn12      1.0  0.39829  0.77108  0.12710  1.0000
  O  Te9       1.0  0.51959  0.76042  0.08267  1.0000
  O  Te10      1.0  0.42547  0.00459  0.94219  1.0000
  O  Te11      1.0  0.26978  0.93562  0.04815  1.0000
  O  Te12      1.0  0.40125  0.69471  0.18864  1.0000
  Mg  Mg5       1.0  0.32883  0.04039  0.95518  1.0000
  Mg  Mg6       1.0  0.49787  0.65888  0.17577  1.0000
  C  Sn13      1.0  0.39528  0.13155  0.21010  1.0000
  C   C23       1.0  0.35832  0.19408  0.14557  1.0000
  C  Sn14      1.0  0.36377  0.20328  0.01958  1.0000
  C  Sn15      1.0  0.44492  0.15210  0.95673  1.0000
  C   C24       1.0  0.44393  0.08633  0.02124  1.0000
  C  Sn16      1.0  0.43853  0.07710  0.14725  1.0000
  O  Te13      1.0  0.38905  0.12350  0.33603  1.0000
  O  Te14      1.0  0.36423  0.26955  0.95706  1.0000
  O  Te15      1.0  0.45112  0.16021  0.83071  1.0000
  O  Te16      1.0  0.47592  0.01414  0.20976  1.0000
  Mg  Mg7       1.0  0.38979  0.25553  0.78590  1.0000
  Mg  Mg8       1.0  0.45037  0.02807  0.38090  1.0000
  C  Sn17      1.0  0.06093  0.66699  0.09506  1.0000
  C   C25       1.0  0.06527  0.59513  0.16745  1.0000
  C  Sn18      1.0  0.12654  0.57532  0.23502  1.0000
  C  Sn19      1.0  0.18469  0.62847  0.23021  1.0000
  C   C26       1.0  0.18032  0.70029  0.15788  1.0000
  C  Sn20      1.0  0.11907  0.72014  0.09025  1.0000
  O  Te17      1.0  0.99915  0.68557  0.02827  1.0000
  O  Te18      1.0  0.12965  0.50313  0.30670  1.0000
  O  Te19      1.0  0.24649  0.60983  0.29709  1.0000
  O  Te20      1.0  0.11595  0.79229  0.01863  1.0000
  Mg  Mg9       1.0  0.22525  0.50451  0.38126  1.0000
  Mg  Mg10      1.0  0.05826  0.79426  0.94409  1.0000
  C  Sn21      1.0  0.08041  0.38191  0.05591  1.0000
  C   C27       1.0  0.05834  0.39126  0.17424  1.0000
  C  Sn22      1.0  0.09967  0.36401  0.27570  1.0000
  C  Sn23      1.0  0.16445  0.32669  0.25854  1.0000
  C   C28       1.0  0.18650  0.31737  0.14027  1.0000
  C  Sn24      1.0  0.14519  0.34459  0.03876  1.0000
  O  Te21      1.0  0.07614  0.41289  0.95582  1.0000
  O  Te22      1.0  0.07649  0.37401  0.39310  1.0000
  O  Te23      1.0  0.20662  0.29898  0.35876  1.0000
  O  Te24      1.0  0.20624  0.33790  0.92141  1.0000
  Mg  Mg11      1.0  0.15246  0.32637  0.50052  1.0000
  Mg  Mg12      1.0  0.13033  0.38555  0.81394  1.0000
  C  Sn25      1.0  0.87448  0.39367  0.43832  1.0000
  C   C29       1.0  0.83787  0.33102  0.37239  1.0000
  C  Sn26      1.0  0.86230  0.29869  0.26461  1.0000
  C  Sn27      1.0  0.92465  0.32958  0.22186  1.0000
  C   C30       1.0  0.96123  0.39219  0.28778  1.0000
  C  Sn28      1.0  0.93683  0.42456  0.39557  1.0000
  O  Te25      1.0  0.84909  0.42507  0.54584  1.0000
  O  Te26      1.0  0.82479  0.23609  0.20025  1.0000
  O  Te27      1.0  0.95001  0.29813  0.11425  1.0000
  O  Te28      1.0  0.97431  0.48711  0.45992  1.0000
  Mg  Mg13      1.0  0.88049  0.21325  0.05880  1.0000
  Mg  Mg14      1.0  0.91868  0.50997  0.60141  1.0000
  C  Sn29      1.0  0.86567  0.59086  0.22181  1.0000
  C   C31       1.0  0.93574  0.60040  0.25613  1.0000
  C  Sn30      1.0  0.95724  0.65259  0.35422  1.0000
  C  Sn31      1.0  0.90767  0.69611  0.41942  1.0000
  C   C32       1.0  0.83764  0.68655  0.38511  1.0000
  C  Sn32      1.0  0.81609  0.63439  0.28701  1.0000
  O  Te29      1.0  0.84535  0.53836  0.12346  1.0000
  O  Te30      1.0  0.02759  0.66114  0.38680  1.0000
  O  Te31      1.0  0.92805  0.74864  0.51783  1.0000
  O  Te32      1.0  0.74580  0.62581  0.25444  1.0000
  Mg  Mg15      1.0  0.02974  0.73986  0.52738  1.0000
  Mg  Mg16      1.0  0.74359  0.54708  0.11393  1.0000
  C  Sn33      1.0  0.56926  0.15500  0.33272  1.0000
  C   C33       1.0  0.57012  0.08679  0.41229  1.0000
  C  Sn34      1.0  0.62963  0.06754  0.48537  1.0000
  C  Sn35      1.0  0.68951  0.11753  0.47885  1.0000
  C   C34       1.0  0.68862  0.18570  0.39934  1.0000
  C  Sn36      1.0  0.62914  0.20499  0.32620  1.0000
  O  Te33      1.0  0.50920  0.17309  0.26051  1.0000
  O  Te34      1.0  0.62986  0.99902  0.56419  1.0000
  O  Te35      1.0  0.74959  0.09938  0.55114  1.0000
  O  Te36      1.0  0.62949  0.27347  0.24744  1.0000
  Mg  Mg17      1.0  0.72423  0.99963  0.64422  1.0000
  Mg  Mg18      1.0  0.53514  0.27295  0.16742  1.0000
  C  Sn37      1.0  0.62562  0.78507  0.49848  1.0000
  C   C35       1.0  0.65422  0.78335  0.38459  1.0000
  C  Sn38      1.0  0.64082  0.84784  0.30061  1.0000
  C  Sn39      1.0  0.59798  0.91550  0.33110  1.0000
  C   C36       1.0  0.56942  0.91721  0.44493  1.0000
  C  Sn40      1.0  0.58278  0.85273  0.52897  1.0000
  O  Te37      1.0  0.63972  0.71992  0.58102  1.0000
  O  Te38      1.0  0.66997  0.84473  0.18731  1.0000
  O  Te39      1.0  0.58390  0.98067  0.24844  1.0000
  O  Te40      1.0  0.55366  0.85582  0.64221  1.0000
  Mg  Mg19      1.0  0.63557  0.94828  0.10572  1.0000
  Mg  Mg20      1.0  0.58806  0.75234  0.72390  1.0000
  C  Sn41      1.0  0.60820  0.14701  0.77468  1.0000
  C   C37       1.0  0.64659  0.20743  0.84215  1.0000
  C  Sn42      1.0  0.64860  0.20778  0.97013  1.0000
  C  Sn43      1.0  0.57360  0.14314  0.03198  1.0000
  C   C38       1.0  0.57316  0.08603  0.96452  1.0000
  C  Sn44      1.0  0.57111  0.08565  0.83652  1.0000
  O  Te41      1.0  0.60694  0.14785  0.64680  1.0000
  O  Te42      1.0  0.64942  0.26556  0.03560  1.0000
  O  Te43      1.0  0.57490  0.14235  0.15997  1.0000
  O  Te44      1.0  0.53243  0.02463  0.77107  1.0000
  Mg  Mg21      1.0  0.63508  0.23841  0.20857  1.0000
  Mg  Mg22      1.0  0.54676  0.05170  0.59811  1.0000
  C  Sn45      1.0  0.60161  0.81765  0.81096  1.0000
  C   C39       1.0  0.67159  0.83043  0.84300  1.0000
  C  Sn46      1.0  0.69243  0.88102  0.94327  1.0000
  C  Sn47      1.0  0.60437  0.91633  0.01304  1.0000
  C   C40       1.0  0.57233  0.90681  0.98102  1.0000
  C  Sn48      1.0  0.55145  0.85624  0.88073  1.0000
  O  Te45      1.0  0.58196  0.76682  0.71036  1.0000
  O  Te46      1.0  0.76269  0.89289  0.97350  1.0000
  O  Te47      1.0  0.62408  0.96719  0.11371  1.0000
  O  Te48      1.0  0.48123  0.84435  0.85051  1.0000
  Mg  Mg23      1.0  0.72593  0.96430  0.11861  1.0000
  Mg  Mg24      1.0  0.48004  0.76965  0.70547  1.0000
  C  Sn49      1.0  0.11168  0.64090  0.53457  1.0000
  C   C41       1.0  0.15458  0.69676  0.60240  1.0000
  C  Sn50      1.0  0.15752  0.69604  0.73043  1.0000
  C  Sn51      1.0  0.11678  0.63824  0.79196  1.0000
  C   C42       1.0  0.07393  0.58242  0.72415  1.0000
  C  Sn52      1.0  0.07094  0.58310  0.59611  1.0000
  O  Te49      1.0  0.10956  0.64273  0.40666  1.0000
  O  Te50      1.0  0.20078  0.75251  0.79625  1.0000
  O  Te51      1.0  0.11894  0.63646  0.91998  1.0000
  O  Te52      1.0  0.02773  0.52667  0.53030  1.0000
  Mg  Mg25      1.0  0.18586  0.72574  0.96912  1.0000
  Mg  Mg26      1.0  0.04263  0.55335  0.35744  1.0000
  C  Sn53      1.0  0.09426  0.30703  0.57438  1.0000
  C   C43       1.0  0.16491  0.31735  0.60246  1.0000
  C  Sn54      1.0  0.18870  0.37059  0.69782  1.0000
  C  Sn55      1.0  0.14089  0.41440  0.76660  1.0000
  C   C44       1.0  0.07029  0.40406  0.73852  1.0000
  C  Sn56      1.0  0.04645  0.35084  0.64316  1.0000
  O  Te53      1.0  0.07163  0.25348  0.47866  1.0000
  O  Te54      1.0  0.25957  0.37991  0.72415  1.0000
  O  Te55      1.0  0.16358  0.46798  0.86237  1.0000
  O  Te56      1.0  0.97562  0.34150  0.61683  1.0000
  Mg  Mg27      1.0  0.26512  0.45995  0.86323  1.0000
  Mg  Mg28      1.0  0.97002  0.26145  0.47782  1.0000
  C  Sn57      1.0  0.83494  0.37933  0.74010  1.0000
  C   C45       1.0  0.83761  0.30696  0.81144  1.0000
  C  Sn58      1.0  0.89704  0.28743  0.88455  1.0000
  C  Sn59      1.0  0.95499  0.34140  0.88647  1.0000
  C   C46       1.0  0.95230  0.41374  0.81519  1.0000
  C  Sn60      1.0  0.89289  0.43330  0.74202  1.0000
  O  Te57      1.0  0.77499  0.39761  0.66770  1.0000
  O  Te58      1.0  0.89850  0.21471  0.95505  1.0000
  O  Te59      1.0  0.01497  0.32306  0.95895  1.0000
  O  Te60      1.0  0.89141  0.50598  0.67158  1.0000
  Mg  Mg29      1.0  0.95402  0.21351  0.03890  1.0000
  Mg  Mg30      1.0  0.79801  0.50399  0.58774  1.0000
  C  Sn61      1.0  0.86363  0.67622  0.72646  1.0000
  C   C47       1.0  0.83436  0.67559  0.83974  1.0000
  C  Sn62      1.0  0.86962  0.63973  0.94197  1.0000
  C  Sn63      1.0  0.93553  0.60379  0.93077  1.0000
  C   C48       1.0  0.96478  0.60444  0.81755  1.0000
  C  Sn64      1.0  0.92954  0.64027  0.71526  1.0000
  O  Te61      1.0  0.82745  0.71241  0.62549  1.0000
  O  Te62      1.0  0.80139  0.63655  0.05425  1.0000
  O  Te63      1.0  0.93380  0.56430  0.03186  1.0000
  O  Te64      1.0  0.95984  0.64020  0.60304  1.0000
  Mg  Mg31      1.0  0.87098  0.57977  0.16523  1.0000
  Mg  Mg32      1.0  0.89032  0.69700  0.49202  1.0000
