data_image0
_chemical_formula_structural       N8C48H16N4Co2N4H8N8C48H16N4Co2N4H8SnCSn2CSnTe4Mg2SnCSn2CSnTe4Mg2SnCSn2CSnTe4Mg2SnCSn2CSnTe4Mg2SnCSn2CSnTe4Mg2SnCSn2CSnTe4Mg2SnCSn2CSnTe4Mg2SnCSn2CSnTe4Mg2SnCSn2CSnTe4Mg2SnCSn2CSnTe4Mg2SnCSn2CSnTe4Mg2SnCSn2CSnTe4Mg2SnCSn2CSnTe4Mg2SnCSn2CSnTe4Mg2SnCSn2CSnTe4Mg2SnCSn2CSnTe4Mg2SnCSn2CSnTe4Mg2SnCSn2CSnTe4Mg2SnCSn2CSnTe4Mg2SnCSn2CSnTe4Mg2SnCSn2CSnTe4Mg2SnCSn2CSnTe4Mg2SnCSn2CSnTe4Mg2SnCSn2CSnTe4Mg2
_chemical_formula_sum              "N32 C144 H48 Co4 Sn96 Te96 Mg48"
_cell_length_a       38.9874
_cell_length_b       33.1392
_cell_length_c       10.3378
_cell_angle_alpha    90.2757
_cell_angle_beta     91.6271
_cell_angle_gamma    90.1037

_symmetry_space_group_name_H-M    'P1'
_space_group_IT_number       1

loop_
  _space_group_symop_operation_xyz
  'x, y, z'

loop_
  _atom_site_type_symbol
  _atom_site_label
  _atom_site_symmetry_multiplicity
  _atom_site_fract_x
  _atom_site_fract_y
  _atom_site_fract_z
  _atom_site_occupancy
  N   N1        1.0  0.17518  0.18380  0.07338  1.0000
  N   N2        1.0  0.82547  0.81543  0.06495  1.0000
  N   N3        1.0  0.82380  0.18411  0.42830  1.0000
  N   N4        1.0  0.17552  0.81932  0.42667  1.0000
  N   N5        1.0  0.32407  0.31640  0.43285  1.0000
  N   N6        1.0  0.67363  0.68452  0.42826  1.0000
  N   N7        1.0  0.67763  0.31829  0.06166  1.0000
  N   N8        1.0  0.32412  0.68117  0.06042  1.0000
  C   C1        1.0  0.18528  0.20688  0.47557  1.0000
  C   C2        1.0  0.81361  0.79174  0.47147  1.0000
  C   C3        1.0  0.81348  0.20603  0.01547  1.0000
  C   C4        1.0  0.18800  0.79413  0.01895  1.0000
  C   C5        1.0  0.31331  0.29330  0.03691  1.0000
  C   C6        1.0  0.68805  0.70380  0.02269  1.0000
  C   C7        1.0  0.68934  0.30090  0.46901  1.0000
  C   C8        1.0  0.31148  0.70533  0.46627  1.0000
  C   C9        1.0  0.47127  0.41367  0.50367  1.0000
  C   C10       1.0  0.52709  0.58774  0.49276  1.0000
  C   C11       1.0  0.52904  0.41287  0.01761  1.0000
  C   C12       1.0  0.47183  0.58599  0.01757  1.0000
  C   C13       1.0  0.02715  0.08688  0.00763  1.0000
  C   C14       1.0  0.97305  0.91204  0.00938  1.0000
  C   C15       1.0  0.96988  0.08619  0.49435  1.0000
  C   C16       1.0  0.02909  0.91430  0.48920  1.0000
  C   C17       1.0  0.43677  0.42622  0.49795  1.0000
  C   C18       1.0  0.56142  0.57524  0.48401  1.0000
  C   C19       1.0  0.56339  0.42595  0.02090  1.0000
  C   C20       1.0  0.43753  0.57299  0.02331  1.0000
  C   C21       1.0  0.06179  0.07496  0.01647  1.0000
  C   C22       1.0  0.93855  0.92412  0.01695  1.0000
  C   C23       1.0  0.93557  0.07273  0.48596  1.0000
  C   C24       1.0  0.06334  0.92782  0.49044  1.0000
  C   C25       1.0  0.42610  0.46678  0.50607  1.0000
  C   C26       1.0  0.57226  0.53473  0.49179  1.0000
  C   C27       1.0  0.57379  0.46658  0.01171  1.0000
  C   C28       1.0  0.42702  0.53227  0.01564  1.0000
  C   C29       1.0  0.07298  0.03459  0.00742  1.0000
  C   C30       1.0  0.92738  0.96452  0.00900  1.0000
  C   C31       1.0  0.92560  0.03185  0.49362  1.0000
  C   C32       1.0  0.07340  0.96843  0.50697  1.0000
  C   C33       1.0  0.48244  0.37220  0.50415  1.0000
  C   C34       1.0  0.51595  0.62920  0.49049  1.0000
  C   C35       1.0  0.51833  0.37118  0.01916  1.0000
  C   C36       1.0  0.48259  0.62765  0.01763  1.0000
  C   C37       1.0  0.01557  0.12821  0.00698  1.0000
  C   C38       1.0  0.98453  0.87071  0.00621  1.0000
  C   C39       1.0  0.98032  0.12796  0.49473  1.0000
  C   C40       1.0  0.01877  0.87257  0.47962  1.0000
  C   C41       1.0  0.39074  0.47931  0.51102  1.0000
  C   C42       1.0  0.60767  0.52222  0.49312  1.0000
  C   C43       1.0  0.60902  0.47961  0.00678  1.0000
  C   C44       1.0  0.39166  0.51931  0.00827  1.0000
  C   C45       1.0  0.10843  0.02265  0.00005  1.0000
  C   C46       1.0  0.89184  0.97658  0.00617  1.0000
  C   C47       1.0  0.89051  0.01821  0.49702  1.0000
  C   C48       1.0  0.10858  0.98185  0.51795  1.0000
  H   H1        1.0  0.17274  0.20740  0.37888  1.0000
  H   H2        1.0  0.82624  0.78722  0.37865  1.0000
  H   H3        1.0  0.82741  0.21038  0.10866  1.0000
  H   H4        1.0  0.17560  0.79025  0.11241  1.0000
  H   H5        1.0  0.32594  0.29130  0.13321  1.0000
  H   H6        1.0  0.67696  0.70512  0.11939  1.0000
  H   H7        1.0  0.67692  0.30057  0.37205  1.0000
  H   H8        1.0  0.32369  0.70789  0.37198  1.0000
  H   H9        1.0  0.46580  0.34610  0.49618  1.0000
  H   H10       1.0  0.53240  0.65514  0.47824  1.0000
  H   H11       1.0  0.53533  0.34545  0.02676  1.0000
  H   H12       1.0  0.46592  0.65343  0.02894  1.0000
  H   H13       1.0  0.03185  0.15457  0.01841  1.0000
  H   H14       1.0  0.96815  0.84443  0.01279  1.0000
  H   H15       1.0  0.96319  0.15344  0.48399  1.0000
  H   H16       1.0  0.03578  0.84728  0.46536  1.0000
  N   N9        1.0  0.44841  0.49900  0.01067  1.0000
  N   N10       1.0  0.55223  0.49976  0.00242  1.0000
  N   N11       1.0  0.05208  0.00069  0.99969  1.0000
  N   N12       1.0  0.94812  0.99824  0.99813  1.0000
  Co  Co1       1.0  0.50042  0.49951  0.00819  1.0000
  Co  Co2       1.0  0.00014  0.99934  0.99796  1.0000
  N   N13       1.0  0.50010  0.56104  0.00648  1.0000
  N   N14       1.0  0.50054  0.43775  0.01075  1.0000
  N   N15       1.0  0.00096  0.93781  0.00118  1.0000
  N   N16       1.0  0.99922  0.06107  0.99592  1.0000
  H   H17       1.0  0.13089  0.96250  0.51682  1.0000
  H   H18       1.0  0.87014  0.95635  0.01119  1.0000
  H   H19       1.0  0.86811  0.03742  0.49353  1.0000
  H   H20       1.0  0.13020  0.04295  0.00157  1.0000
  H   H21       1.0  0.62955  0.54212  0.48662  1.0000
  H   H22       1.0  0.63118  0.46002  0.01200  1.0000
  H   H23       1.0  0.36871  0.45938  0.50896  1.0000
  H   H24       1.0  0.36956  0.53899  0.00779  1.0000
  N   N17       1.0  0.17342  0.18664  0.57148  1.0000
  N   N18       1.0  0.82567  0.81518  0.56254  1.0000
  N   N19       1.0  0.82336  0.18135  0.92661  1.0000
  N   N20       1.0  0.17635  0.81807  0.92937  1.0000
  N   N21       1.0  0.32494  0.31508  0.94412  1.0000
  N   N22       1.0  0.67479  0.68270  0.92804  1.0000
  N   N23       1.0  0.67743  0.32104  0.56558  1.0000
  N   N24       1.0  0.32357  0.68321  0.55982  1.0000
  C   C49       1.0  0.18642  0.20599  0.98079  1.0000
  C   C50       1.0  0.81224  0.79458  0.96970  1.0000
  C   C51       1.0  0.81170  0.20525  0.52230  1.0000
  C   C52       1.0  0.18796  0.79710  0.51929  1.0000
  C   C53       1.0  0.31149  0.29600  0.52696  1.0000
  C   C54       1.0  0.68665  0.70620  0.52197  1.0000
  C   C55       1.0  0.68849  0.29652  0.96688  1.0000
  C   C56       1.0  0.31184  0.70269  0.96579  1.0000
  C   C57       1.0  0.47224  0.41242  0.00537  1.0000
  C   C58       1.0  0.52821  0.58636  0.99637  1.0000
  C   C59       1.0  0.52810  0.41432  0.51808  1.0000
  C   C60       1.0  0.47072  0.58733  0.51355  1.0000
  C   C61       1.0  0.02662  0.08735  0.51706  1.0000
  C   C62       1.0  0.97252  0.91268  0.50329  1.0000
  C   C63       1.0  0.97044  0.08551  0.98626  1.0000
  C   C64       1.0  0.02959  0.91338  0.99122  1.0000
  C   C65       1.0  0.43778  0.42492  0.99735  1.0000
  C   C66       1.0  0.56248  0.57376  0.98561  1.0000
  C   C67       1.0  0.56244  0.42750  0.52180  1.0000
  C   C68       1.0  0.43653  0.57433  0.52390  1.0000
  C   C69       1.0  0.06120  0.07543  0.52970  1.0000
  C   C70       1.0  0.93805  0.92459  0.51315  1.0000
  C   C71       1.0  0.93621  0.07189  0.97998  1.0000
  C   C72       1.0  0.06372  0.92695  0.98315  1.0000
  C   C73       1.0  0.42709  0.46549  0.00170  1.0000
  C   C74       1.0  0.57332  0.53322  0.99206  1.0000
  C   C75       1.0  0.57275  0.46813  0.51173  1.0000
  C   C76       1.0  0.42600  0.53359  0.52083  1.0000
  C   C77       1.0  0.07246  0.03504  0.52711  1.0000
  C   C78       1.0  0.92678  0.96506  0.50929  1.0000
  C   C79       1.0  0.92626  0.03111  0.98952  1.0000
  C   C80       1.0  0.07383  0.96781  0.98893  1.0000
  C   C81       1.0  0.48328  0.37089  0.00803  1.0000
  C   C82       1.0  0.51725  0.62788  0.00019  1.0000
  C   C83       1.0  0.51748  0.37261  0.51716  1.0000
  C   C84       1.0  0.48128  0.62898  0.50720  1.0000
  C   C85       1.0  0.01523  0.12870  0.51261  1.0000
  C   C86       1.0  0.98398  0.87146  0.49289  1.0000
  C   C87       1.0  0.98070  0.12737  0.98865  1.0000
  C   C88       1.0  0.01929  0.87153  0.99135  1.0000
  C   C89       1.0  0.39171  0.47810  0.00117  1.0000
  C   C90       1.0  0.60876  0.52072  0.99542  1.0000
  C   C91       1.0  0.60797  0.48110  0.50398  1.0000
  C   C92       1.0  0.39068  0.52055  0.51888  1.0000
  C   C93       1.0  0.10801  0.02300  0.52868  1.0000
  C   C94       1.0  0.89122  0.97704  0.50589  1.0000
  C   C95       1.0  0.89116  0.01766  0.99568  1.0000
  C   C96       1.0  0.10898  0.98148  0.98970  1.0000
  H   H25       1.0  0.17288  0.20918  0.88653  1.0000
  H   H26       1.0  0.82311  0.79395  0.87258  1.0000
  H   H27       1.0  0.82281  0.20464  0.62141  1.0000
  H   H28       1.0  0.17678  0.79594  0.61584  1.0000
  H   H29       1.0  0.32327  0.29567  0.62505  1.0000
  H   H30       1.0  0.67530  0.70805  0.61806  1.0000
  H   H31       1.0  0.67497  0.29433  0.87218  1.0000
  H   H32       1.0  0.32358  0.70402  0.87027  1.0000
  H   H33       1.0  0.46641  0.34491  0.00317  1.0000
  H   H34       1.0  0.53378  0.65390  0.99140  1.0000
  H   H35       1.0  0.53448  0.34689  0.52399  1.0000
  H   H36       1.0  0.46446  0.65479  0.51319  1.0000
  H   H37       1.0  0.03167  0.15496  0.52191  1.0000
  H   H38       1.0  0.96771  0.84501  0.49377  1.0000
  H   H39       1.0  0.96361  0.15294  0.97909  1.0000
  H   H40       1.0  0.03628  0.84598  0.98136  1.0000
  N   N25       1.0  0.44740  0.50034  0.51312  1.0000
  N   N26       1.0  0.55119  0.50128  0.50352  1.0000
  N   N27       1.0  0.05157  0.00126  0.51479  1.0000
  N   N28       1.0  0.94752  0.99896  0.50192  1.0000
  Co  Co3       1.0  0.49926  0.50064  0.50839  1.0000
  Co  Co4       1.0  0.99948  0.00020  0.50731  1.0000
  N   N29       1.0  0.49908  0.56242  0.50570  1.0000
  N   N30       1.0  0.49952  0.43910  0.51121  1.0000
  N   N31       1.0  0.00045  0.93858  0.50145  1.0000
  N   N32       1.0  0.99857  0.06167  0.50614  1.0000
  H   H41       1.0  0.13129  0.96231  0.98307  1.0000
  H   H42       1.0  0.86951  0.95673  0.50866  1.0000
  H   H43       1.0  0.86882  0.03698  0.99295  1.0000
  H   H44       1.0  0.12981  0.04324  0.53558  1.0000
  H   H45       1.0  0.63069  0.54066  0.99076  1.0000
  H   H46       1.0  0.63014  0.46152  0.50614  1.0000
  H   H47       1.0  0.36968  0.45819  0.99628  1.0000
  H   H48       1.0  0.36863  0.54025  0.52188  1.0000
  C  Sn1       1.0  0.36958  0.37053  0.33502  1.0000
  C   C97       1.0  0.36086  0.33900  0.41725  1.0000
  C  Sn2       1.0  0.37519  0.33697  0.54244  1.0000
  C  Sn3       1.0  0.39870  0.36709  0.58640  1.0000
  C   C98       1.0  0.40740  0.39859  0.50420  1.0000
  C  Sn4       1.0  0.39309  0.40064  0.37898  1.0000
  O  Te1       1.0  0.35495  0.37196  0.21025  1.0000
  O  Te2       1.0  0.36609  0.30516  0.62286  1.0000
  O  Te3       1.0  0.41333  0.36564  0.71128  1.0000
  O  Te4       1.0  0.40217  0.43244  0.29859  1.0000
  Mg  Mg1       1.0  0.39288  0.31638  0.78465  1.0000
  Mg  Mg2       1.0  0.37539  0.42126  0.13681  1.0000
  C  Sn5       1.0  0.59252  0.65246  0.54111  1.0000
  C   C99       1.0  0.58426  0.61937  0.46185  1.0000
  C  Sn6       1.0  0.60795  0.60456  0.37464  1.0000
  C  Sn7       1.0  0.64059  0.62321  0.36653  1.0000
  C   C100      1.0  0.64884  0.65627  0.44577  1.0000
  C  Sn8       1.0  0.62516  0.67111  0.53300  1.0000
  O  Te5       1.0  0.56844  0.66676  0.62760  1.0000
  O  Te6       1.0  0.59910  0.57145  0.29637  1.0000
  O  Te7       1.0  0.66467  0.60888  0.27995  1.0000
  O  Te8       1.0  0.63400  0.70420  0.61125  1.0000
  Mg  Mg3       1.0  0.64063  0.56300  0.19381  1.0000
  Mg  Mg4       1.0  0.59250  0.71265  0.71389  1.0000
  C  Sn9       1.0  0.59445  0.35007  0.95308  1.0000
  C   C101      1.0  0.57938  0.38029  0.03707  1.0000
  C  Sn10      1.0  0.60417  0.39448  0.12638  1.0000
  C  Sn11      1.0  0.63720  0.37659  0.13181  1.0000
  C   C102      1.0  0.64473  0.34488  0.04784  1.0000
  C  Sn12      1.0  0.62748  0.33219  0.95851  1.0000
  O  Te9       1.0  0.56927  0.33638  0.86456  1.0000
  O  Te10      1.0  0.59603  0.42623  0.20938  1.0000
  O  Te11      1.0  0.66238  0.39031  0.22042  1.0000
  O  Te12      1.0  0.63561  0.30046  0.87553  1.0000
  Mg  Mg5       1.0  0.63898  0.43431  0.31312  1.0000
  Mg  Mg6       1.0  0.59269  0.29237  0.77171  1.0000
  C  Sn13      1.0  0.36986  0.62830  0.16985  1.0000
  C   C103      1.0  0.36083  0.65911  0.08363  1.0000
  C  Sn14      1.0  0.38275  0.66220  0.96155  1.0000
  C  Sn15      1.0  0.40667  0.63235  0.92483  1.0000
  C   C104      1.0  0.40815  0.60004  0.01101  1.0000
  C  Sn16      1.0  0.39377  0.59845  0.13313  1.0000
  O  Te13      1.0  0.35515  0.62731  0.29140  1.0000
  O  Te14      1.0  0.37333  0.69330  0.87703  1.0000
  O  Te15      1.0  0.42138  0.63336  0.80317  1.0000
  O  Te16      1.0  0.40318  0.56737  0.21761  1.0000
  Mg  Mg7       1.0  0.40038  0.68169  0.72202  1.0000
  Mg  Mg8       1.0  0.37613  0.57894  0.37261  1.0000
  C  Sn17      1.0  0.10298  0.13855  0.91972  1.0000
  C   C105      1.0  0.08756  0.10492  0.00087  1.0000
  C  Sn18      1.0  0.10283  0.10225  0.12441  1.0000
  C  Sn19      1.0  0.12646  0.13232  0.16778  1.0000
  C   C106      1.0  0.13434  0.16441  0.08666  1.0000
  C  Sn20      1.0  0.12661  0.16862  0.96309  1.0000
  O  Te17      1.0  0.08741  0.14062  0.79660  1.0000
  O  Te18      1.0  0.09454  0.06986  0.20378  1.0000
  O  Te19      1.0  0.14203  0.13023  0.29101  1.0000
  O  Te20      1.0  0.13488  0.20099  0.88376  1.0000
  Mg  Mg9       1.0  0.12246  0.08032  0.36343  1.0000
  Mg  Mg10      1.0  0.10697  0.19057  0.72412  1.0000
  C  Sn21      1.0  0.86045  0.88372  0.12889  1.0000
  C   C107      1.0  0.85148  0.85169  0.04615  1.0000
  C  Sn22      1.0  0.88249  0.83839  0.95815  1.0000
  C  Sn23      1.0  0.91563  0.85592  0.95278  1.0000
  C   C108      1.0  0.91705  0.88640  0.03550  1.0000
  C  Sn24      1.0  0.89359  0.90125  0.12352  1.0000
  O  Te21      1.0  0.83657  0.89805  0.21611  1.0000
  O  Te22      1.0  0.87293  0.80635  0.87639  1.0000
  O  Te23      1.0  0.93951  0.84156  0.86546  1.0000
  O  Te24      1.0  0.90314  0.93326  0.20526  1.0000
  Mg  Mg11      1.0  0.91444  0.79739  0.77416  1.0000
  Mg  Mg12      1.0  0.86166  0.94223  0.30757  1.0000
  C  Sn25      1.0  0.85600  0.11387  0.37000  1.0000
  C   C109      1.0  0.84871  0.14641  0.45112  1.0000
  C  Sn26      1.0  0.87343  0.16066  0.54062  1.0000
  C  Sn27      1.0  0.90613  0.14202  0.54916  1.0000
  C   C110      1.0  0.91341  0.10951  0.46806  1.0000
  C  Sn28      1.0  0.88870  0.09523  0.37854  1.0000
  O  Te25      1.0  0.83090  0.10012  0.28124  1.0000
  O  Te26      1.0  0.86553  0.19323  0.62072  1.0000
  O  Te27      1.0  0.93123  0.15580  0.63802  1.0000
  O  Te28      1.0  0.89658  0.06268  0.29846  1.0000
  Mg  Mg13      1.0  0.90825  0.20105  0.72607  1.0000
  Mg  Mg14      1.0  0.85389  0.05485  0.19304  1.0000
  C  Sn29      1.0  0.10589  0.86350  0.58347  1.0000
  C   C111      1.0  0.09791  0.89737  0.50847  1.0000
  C  Sn30      1.0  0.11231  0.90231  0.38736  1.0000
  C  Sn31      1.0  0.13514  0.87278  0.34017  1.0000
  C   C112      1.0  0.14311  0.83894  0.41513  1.0000
  C  Sn32      1.0  0.12872  0.83398  0.53628  1.0000
  O  Te29      1.0  0.09119  0.85918  0.70426  1.0000
  O  Te30      1.0  0.10395  0.93642  0.31416  1.0000
  O  Te31      1.0  0.14984  0.87713  0.21927  1.0000
  O  Te32      1.0  0.13707  0.79988  0.60944  1.0000
  Mg  Mg15      1.0  0.13052  0.92878  0.15555  1.0000
  Mg  Mg16      1.0  0.11049  0.80749  0.76803  1.0000
  C  Sn33      1.0  0.86092  0.88278  0.62683  1.0000
  C   C113      1.0  0.85205  0.85068  0.54429  1.0000
  C  Sn34      1.0  0.87543  0.83619  0.45539  1.0000
  C  Sn35      1.0  0.90838  0.85414  0.44891  1.0000
  C   C114      1.0  0.91724  0.88622  0.53143  1.0000
  C  Sn36      1.0  0.89387  0.90074  0.62035  1.0000
  O  Te33      1.0  0.83713  0.89678  0.71496  1.0000
  O  Te34      1.0  0.86597  0.80406  0.37384  1.0000
  O  Te35      1.0  0.93217  0.84012  0.36068  1.0000
  O  Te36      1.0  0.90332  0.93284  0.70187  1.0000
  Mg  Mg17      1.0  0.90729  0.79567  0.27010  1.0000
  Mg  Mg18      1.0  0.86203  0.94124  0.80569  1.0000
  C  Sn37      1.0  0.10707  0.16698  0.46184  1.0000
  C   C115      1.0  0.13285  0.17055  0.55793  1.0000
  C  Sn38      1.0  0.13880  0.13929  0.64587  1.0000
  C  Sn39      1.0  0.11858  0.10371  0.63756  1.0000
  C   C116      1.0  0.09282  0.10015  0.54150  1.0000
  C  Sn40      1.0  0.08684  0.13140  0.45353  1.0000
  O  Te37      1.0  0.10157  0.19861  0.37495  1.0000
  O  Te38      1.0  0.16472  0.14357  0.74113  1.0000
  O  Te39      1.0  0.12410  0.07207  0.72456  1.0000
  O  Te40      1.0  0.06095  0.12713  0.35831  1.0000
  Mg  Mg19      1.0  0.16241  0.09213  0.83715  1.0000
  Mg  Mg20      1.0  0.06325  0.17854  0.26220  1.0000
  C  Sn41      1.0  0.14146  0.88618  0.86691  1.0000
  C   C117      1.0  0.15066  0.85455  0.94978  1.0000
  C  Sn42      1.0  0.12015  0.83905  0.04071  1.0000
  C  Sn43      1.0  0.08729  0.85702  0.04894  1.0000
  C   C118      1.0  0.08564  0.89014  0.96609  1.0000
  C  Sn44      1.0  0.10860  0.90415  0.87514  1.0000
  O  Te41      1.0  0.16484  0.89968  0.77675  1.0000
  O  Te42      1.0  0.12993  0.80740  0.12254  1.0000
  O  Te43      1.0  0.06391  0.84349  0.13920  1.0000
  O  Te44      1.0  0.09884  0.93577  0.79333  1.0000
  Mg  Mg21      1.0  0.08911  0.79958  0.22937  1.0000
  Mg  Mg22      1.0  0.13962  0.94360  0.68643  1.0000
  C  Sn45      1.0  0.88998  0.16376  0.03519  1.0000
  C   C119      1.0  0.87104  0.16641  0.94124  1.0000
  C  Sn46      1.0  0.86446  0.13302  0.86130  1.0000
  C  Sn47      1.0  0.88474  0.09775  0.87560  1.0000
  C   C120      1.0  0.91118  0.09663  0.96952  1.0000
  C  Sn48      1.0  0.91026  0.12849  0.04950  1.0000
  O  Te45      1.0  0.89610  0.19749  0.11406  1.0000
  O  Te46      1.0  0.83787  0.13488  0.76804  1.0000
  O  Te47      1.0  0.87860  0.06401  0.79664  1.0000
  O  Te48      1.0  0.93683  0.12664  0.14272  1.0000
  Mg  Mg23      1.0  0.83949  0.08117  0.68378  1.0000
  Mg  Mg24      1.0  0.93522  0.18033  0.22707  1.0000
  C  Sn49      1.0  0.59398  0.65073  0.04366  1.0000
  C   C121      1.0  0.59269  0.61956  0.96344  1.0000
  C  Sn50      1.0  0.61586  0.60499  0.87386  1.0000
  C  Sn51      1.0  0.64853  0.62345  0.86431  1.0000
  C   C122      1.0  0.65734  0.65612  0.94451  1.0000
  C  Sn52      1.0  0.62665  0.66920  0.03411  1.0000
  O  Te49      1.0  0.57042  0.66480  0.13252  1.0000
  O  Te50      1.0  0.60646  0.57228  0.79468  1.0000
  O  Te51      1.0  0.67209  0.60936  0.77536  1.0000
  O  Te52      1.0  0.63604  0.70188  0.11328  1.0000
  Mg  Mg25      1.0  0.64740  0.56402  0.68879  1.0000
  Mg  Mg26      1.0  0.59512  0.71015  0.21924  1.0000
  C  Sn53      1.0  0.37112  0.36698  0.84016  1.0000
  C   C123      1.0  0.36209  0.33683  0.92701  1.0000
  C  Sn54      1.0  0.36846  0.33526  0.05305  1.0000
  C  Sn55      1.0  0.39186  0.36598  0.09315  1.0000
  C   C124      1.0  0.40087  0.39610  0.00634  1.0000
  C  Sn56      1.0  0.39452  0.39770  0.88026  1.0000
  O  Te53      1.0  0.35691  0.36644  0.71463  1.0000
  O  Te54      1.0  0.35906  0.30480  0.13813  1.0000
  O  Te55      1.0  0.40607  0.36650  0.21880  1.0000
  O  Te56      1.0  0.40391  0.42814  0.79523  1.0000
  Mg  Mg27      1.0  0.38531  0.31853  0.29914  1.0000
  Mg  Mg28      1.0  0.37765  0.41445  0.63421  1.0000
  C  Sn57      1.0  0.37060  0.63229  0.67150  1.0000
  C   C125      1.0  0.36075  0.66177  0.58174  1.0000
  C  Sn58      1.0  0.37386  0.66134  0.45737  1.0000
  C  Sn59      1.0  0.39728  0.63079  0.42196  1.0000
  C   C126      1.0  0.40711  0.60133  0.51169  1.0000
  C  Sn60      1.0  0.39402  0.60174  0.63609  1.0000
  O  Te57      1.0  0.35717  0.63330  0.79529  1.0000
  O  Te58      1.0  0.36364  0.69114  0.36932  1.0000
  O  Te59      1.0  0.41071  0.62980  0.29806  1.0000
  O  Te60      1.0  0.40422  0.57195  0.72410  1.0000
  Mg  Mg29      1.0  0.38901  0.67694  0.21231  1.0000
  Mg  Mg30      1.0  0.37886  0.58611  0.88111  1.0000
  C  Sn61      1.0  0.59393  0.35162  0.45762  1.0000
  C   C127      1.0  0.58633  0.38384  0.53961  1.0000
  C  Sn62      1.0  0.61118  0.39879  0.62741  1.0000
  C  Sn63      1.0  0.64431  0.38117  0.63333  1.0000
  C   C128      1.0  0.65189  0.34897  0.55137  1.0000
  C  Sn64      1.0  0.62706  0.33400  0.46355  1.0000
  O  Te61      1.0  0.56869  0.33717  0.37059  1.0000
  O  Te62      1.0  0.60298  0.43102  0.70842  1.0000
  O  Te63      1.0  0.66955  0.39565  0.72046  1.0000
  O  Te64      1.0  0.63524  0.30180  0.38256  1.0000
  Mg  Mg31      1.0  0.64604  0.44008  0.81066  1.0000
  Mg  Mg32      1.0  0.59222  0.29272  0.28024  1.0000
  C  Sn65      1.0  0.23828  0.25463  0.87699  1.0000
  C   C129      1.0  0.22538  0.22525  0.95917  1.0000
  C  Sn66      1.0  0.23192  0.21892  0.08391  1.0000
  C  Sn67      1.0  0.25944  0.24402  0.12746  1.0000
  C   C130      1.0  0.27233  0.27338  0.04531  1.0000
  C  Sn68      1.0  0.26581  0.27972  0.92054  1.0000
  O  Te65      1.0  0.22382  0.25891  0.75268  1.0000
  O  Te66      1.0  0.21860  0.18934  0.16429  1.0000
  O  Te67      1.0  0.27390  0.23972  0.25188  1.0000
  O  Te68      1.0  0.27911  0.30929  0.84019  1.0000
  Mg  Mg33      1.0  0.24690  0.19515  0.32538  1.0000
  Mg  Mg34      1.0  0.25081  0.30352  0.67912  1.0000
  C  Sn69      1.0  0.75879  0.76438  0.12319  1.0000
  C   C131      1.0  0.78157  0.76348  0.02124  1.0000
  C  Sn70      1.0  0.77931  0.74747  0.90267  1.0000
  C  Sn71      1.0  0.74605  0.73051  0.88560  1.0000
  C   C132      1.0  0.72329  0.73142  0.98750  1.0000
  C  Sn72      1.0  0.72553  0.74742  0.10612  1.0000
  O  Te69      1.0  0.76913  0.78205  0.24088  1.0000
  O  Te70      1.0  0.80253  0.74691  0.80218  1.0000
  O  Te71      1.0  0.73572  0.71283  0.76778  1.0000
  O  Te72      1.0  0.70233  0.74798  0.20656  1.0000
  Mg  Mg35      1.0  0.77649  0.71944  0.65997  1.0000
  Mg  Mg36      1.0  0.72833  0.77547  0.34878  1.0000
  C  Sn73      1.0  0.76196  0.25642  0.62553  1.0000
  C   C133      1.0  0.77441  0.22810  0.53799  1.0000
  C  Sn74      1.0  0.76148  0.22674  0.41063  1.0000
  C  Sn75      1.0  0.73558  0.25427  0.36989  1.0000
  C   C134      1.0  0.72316  0.28257  0.45739  1.0000
  C  Sn76      1.0  0.73607  0.28395  0.58478  1.0000
  O  Te73      1.0  0.77526  0.25724  0.75238  1.0000
  O  Te74      1.0  0.77431  0.19816  0.32489  1.0000
  O  Te75      1.0  0.72228  0.25343  0.24292  1.0000
  O  Te76      1.0  0.72325  0.31251  0.67049  1.0000
  Mg  Mg37      1.0  0.74803  0.20897  0.16209  1.0000
  Mg  Mg38      1.0  0.74952  0.30174  0.83329  1.0000
  C  Sn77      1.0  0.24206  0.76783  0.36628  1.0000
  C   C135      1.0  0.21841  0.76602  0.46517  1.0000
  C  Sn78      1.0  0.22693  0.74680  0.58166  1.0000
  C  Sn79      1.0  0.25978  0.72905  0.59972  1.0000
  C   C136      1.0  0.28341  0.73087  0.50087  1.0000
  C  Sn80      1.0  0.27491  0.75007  0.38434  1.0000
  O  Te77      1.0  0.23300  0.78720  0.25063  1.0000
  O  Te78      1.0  0.20285  0.74537  0.67910  1.0000
  O  Te79      1.0  0.26883  0.70967  0.71548  1.0000
  O  Te80      1.0  0.29897  0.75152  0.28694  1.0000
  Mg  Mg39      1.0  0.22726  0.71561  0.81939  1.0000
  Mg  Mg40      1.0  0.27460  0.78128  0.14665  1.0000
  C  Sn81      1.0  0.26907  0.23112  0.59601  1.0000
  C   C137      1.0  0.28187  0.25986  0.51133  1.0000
  C  Sn82      1.0  0.26049  0.27683  0.41559  1.0000
  C  Sn83      1.0  0.22558  0.26486  0.40428  1.0000
  C   C138      1.0  0.21280  0.23615  0.48893  1.0000
  C  Sn84      1.0  0.23417  0.21915  0.58470  1.0000
  O  Te81      1.0  0.29091  0.21455  0.69101  1.0000
  O  Te82      1.0  0.27387  0.30550  0.33203  1.0000
  O  Te83      1.0  0.20374  0.28146  0.30918  1.0000
  O  Te84      1.0  0.22080  0.19051  0.66824  1.0000
  Mg  Mg41      1.0  0.23394  0.31940  0.21835  1.0000
  Mg  Mg42      1.0  0.26069  0.17660  0.78199  1.0000
  C  Sn85      1.0  0.72963  0.77270  0.58201  1.0000
  C   C139      1.0  0.71645  0.74159  0.50345  1.0000
  C  Sn86      1.0  0.73753  0.72151  0.41721  1.0000
  C  Sn87      1.0  0.77253  0.73274  0.40937  1.0000
  C   C140      1.0  0.78570  0.76382  0.48791  1.0000
  C  Sn88      1.0  0.76463  0.78393  0.57417  1.0000
  O  Te85      1.0  0.70809  0.79236  0.66754  1.0000
  O  Te86      1.0  0.72376  0.69051  0.33963  1.0000
  O  Te87      1.0  0.79407  0.71305  0.32374  1.0000
  O  Te88      1.0  0.77839  0.81490  0.65173  1.0000
  Mg  Mg43      1.0  0.76339  0.67275  0.23829  1.0000
  Mg  Mg44      1.0  0.73879  0.83267  0.75315  1.0000
  C  Sn89      1.0  0.75622  0.23370  0.86473  1.0000
  C   C141      1.0  0.78154  0.23587  0.96294  1.0000
  C  Sn90      1.0  0.76746  0.25397  0.07954  1.0000
  C  Sn91      1.0  0.73492  0.27177  0.09841  1.0000
  C   C142      1.0  0.70961  0.26959  0.00025  1.0000
  C  Sn92      1.0  0.72367  0.25150  0.88360  1.0000
  O  Te89      1.0  0.76332  0.21393  0.74896  1.0000
  O  Te90      1.0  0.79319  0.25577  0.17629  1.0000
  O  Te91      1.0  0.72783  0.29155  0.21430  1.0000
  O  Te92      1.0  0.69796  0.24969  0.78690  1.0000
  Mg  Mg45      1.0  0.77116  0.28600  0.31707  1.0000
  Mg  Mg46      1.0  0.71996  0.21945  0.64612  1.0000
  C  Sn93      1.0  0.27099  0.77063  0.90624  1.0000
  C   C143      1.0  0.28297  0.73892  0.98373  1.0000
  C  Sn94      1.0  0.25359  0.71836  0.06924  1.0000
  C  Sn95      1.0  0.21905  0.73126  0.07742  1.0000
  C   C144      1.0  0.21462  0.76447  0.99994  1.0000
  C  Sn96      1.0  0.23646  0.78354  0.91441  1.0000
  O  Te93      1.0  0.29329  0.78923  0.82143  1.0000
  O  Te94      1.0  0.26615  0.68672  0.14577  1.0000
  O  Te95      1.0  0.19676  0.71263  0.16232  1.0000
  O  Te96      1.0  0.22391  0.81515  0.83790  1.0000
  Mg  Mg47      1.0  0.22586  0.67090  0.24642  1.0000
  Mg  Mg48      1.0  0.26417  0.83098  0.73717  1.0000
