data_image0
_chemical_formula_structural       C12H3C5H5C10H5C5H5N8C8H8C8H4C4H4C8H4C4H4C24NHNH2N2HC4H4NHNH2N2H5C2Sn2C2HTe2HMgC2Sn2C2HTe2HMgC2Sn2C2HTe2HMgC2Sn2C2HTe2HMgC2Sn2C2HTe2HMgC2Sn2C2HTe2HMgC2Sn2C2HTe2HMg
_chemical_formula_sum              "C120 H72 N16 Sn14 Te14 Mg7"
_cell_length_a       25.6103
_cell_length_b       26.3755
_cell_length_c       8.1202
_cell_angle_alpha    90.2845
_cell_angle_beta     90.0076
_cell_angle_gamma    89.8193

_symmetry_space_group_name_H-M    'P1'
_space_group_IT_number       1

loop_
  _space_group_symop_operation_xyz
  'x, y, z'

loop_
  _atom_site_type_symbol
  _atom_site_label
  _atom_site_symmetry_multiplicity
  _atom_site_fract_x
  _atom_site_fract_y
  _atom_site_fract_z
  _atom_site_occupancy
  C   C1        1.0  0.24895  0.25055  0.25251  1.0000
  C   C2        1.0  0.75279  0.74900  0.74549  1.0000
  C   C3        1.0  0.71921  0.71222  0.64030  1.0000
  C   C4        1.0  0.71872  0.77602  0.87433  1.0000
  C   C5        1.0  0.28278  0.21897  0.13270  1.0000
  C   C6        1.0  0.79016  0.71879  0.85622  1.0000
  C   C7        1.0  0.21399  0.28088  0.13380  1.0000
  C   C8        1.0  0.67847  0.73221  0.54487  1.0000
  C   C9        1.0  0.73171  0.75923  0.03386  1.0000
  C   C10       1.0  0.25808  0.18217  0.03404  1.0000
  C   C11       1.0  0.77377  0.72191  0.02159  1.0000
  C   C12       1.0  0.23782  0.31647  0.02982  1.0000
  H   H1        1.0  0.66956  0.77251  0.54987  1.0000
  H   H2        1.0  0.21702  0.17376  0.05405  1.0000
  H   H3        1.0  0.27893  0.32560  0.04555  1.0000
  C   C13       1.0  0.65172  0.70259  0.43124  1.0000
  C   C14       1.0  0.70822  0.77960  0.17347  1.0000
  C   C15       1.0  0.28376  0.15863  0.90379  1.0000
  C   C16       1.0  0.79764  0.69347  0.14520  1.0000
  C   C17       1.0  0.21090  0.33809  0.89933  1.0000
  H   H4        1.0  0.62319  0.72067  0.35130  1.0000
  H   H5        1.0  0.72012  0.76805  0.29567  1.0000
  H   H6        1.0  0.26228  0.13231  0.82614  1.0000
  H   H7        1.0  0.78341  0.69547  0.27098  1.0000
  H   H8        1.0  0.23147  0.36313  0.81564  1.0000
  C   C18       1.0  0.66496  0.65115  0.40813  1.0000
  C   C19       1.0  0.67015  0.81757  0.15596  1.0000
  C   C20       1.0  0.33550  0.17199  0.86411  1.0000
  C   C21       1.0  0.84189  0.66415  0.10645  1.0000
  C   C22       1.0  0.15869  0.32460  0.86670  1.0000
  C   C23       1.0  0.70403  0.63040  0.50927  1.0000
  C   C24       1.0  0.65548  0.83315  0.99653  1.0000
  C   C25       1.0  0.36068  0.20808  0.96433  1.0000
  C   C26       1.0  0.85959  0.66294  0.94201  1.0000
  C   C27       1.0  0.13454  0.28948  0.97149  1.0000
  H   H9        1.0  0.71403  0.59052  0.49391  1.0000
  H   H10       1.0  0.62490  0.86148  0.98189  1.0000
  H   H11       1.0  0.40043  0.21914  0.93370  1.0000
  H   H12       1.0  0.89291  0.63955  0.90792  1.0000
  H   H13       1.0  0.09438  0.27859  0.94602  1.0000
  C   C28       1.0  0.73048  0.66036  0.62394  1.0000
  C   C29       1.0  0.67963  0.81253  0.85651  1.0000
  C   C30       1.0  0.33494  0.23074  0.09732  1.0000
  C   C31       1.0  0.83353  0.68903  0.81713  1.0000
  C   C32       1.0  0.16171  0.26812  0.10303  1.0000
  H   H14       1.0  0.76127  0.64332  0.69736  1.0000
  H   H15       1.0  0.66805  0.82625  0.73594  1.0000
  H   H16       1.0  0.35507  0.25937  0.17006  1.0000
  H   H17       1.0  0.84830  0.68582  0.69197  1.0000
  H   H18       1.0  0.14240  0.24012  0.17947  1.0000
  N   N1        1.0  0.34663  0.36167  0.77875  1.0000
  N   N2        1.0  0.64532  0.62125  0.27963  1.0000
  N   N3        1.0  0.15397  0.14137  0.78367  1.0000
  N   N4        1.0  0.84242  0.87599  0.24367  1.0000
  N   N5        1.0  0.64721  0.83728  0.29999  1.0000
  N   N6        1.0  0.36203  0.15431  0.72375  1.0000
  N   N7        1.0  0.87208  0.64018  0.22880  1.0000
  N   N8        1.0  0.13168  0.34087  0.72632  1.0000
  C   C33       1.0  0.39437  0.35470  0.82709  1.0000
  C   C34       1.0  0.60048  0.63184  0.21487  1.0000
  C   C35       1.0  0.10664  0.14860  0.83499  1.0000
  C   C36       1.0  0.89065  0.87061  0.20000  1.0000
  C   C37       1.0  0.64283  0.88581  0.31664  1.0000
  C   C38       1.0  0.35311  0.10924  0.66629  1.0000
  C   C39       1.0  0.85001  0.61299  0.34085  1.0000
  C   C40       1.0  0.14119  0.38557  0.66883  1.0000
  H   H19       1.0  0.42205  0.33171  0.75459  1.0000
  H   H20       1.0  0.57389  0.66042  0.26811  1.0000
  H   H21       1.0  0.07867  0.17199  0.76580  1.0000
  H   H22       1.0  0.91806  0.84781  0.27379  1.0000
  H   H23       1.0  0.65928  0.91171  0.22450  1.0000
  H   H24       1.0  0.32744  0.08234  0.73012  1.0000
  H   H25       1.0  0.80809  0.60408  0.33547  1.0000
  H   H26       1.0  0.16619  0.41255  0.73596  1.0000
  C   C41       1.0  0.41524  0.37900  0.97429  1.0000
  C   C42       1.0  0.58193  0.60640  0.06692  1.0000
  C   C43       1.0  0.08689  0.12307  0.98054  1.0000
  C   C44       1.0  0.37924  0.08983  0.51933  1.0000
  C   C45       1.0  0.46952  0.37952  0.00320  1.0000
  C   C46       1.0  0.53089  0.61587  0.01086  1.0000
  C   C47       1.0  0.03272  0.11919  0.00675  1.0000
  C   C48       1.0  0.38039  0.03720  0.48932  1.0000
  H   H27       1.0  0.49549  0.35989  0.91768  1.0000
  H   H28       1.0  0.50661  0.64315  0.07697  1.0000
  H   H29       1.0  0.00602  0.13772  0.92148  1.0000
  H   H30       1.0  0.35872  0.01210  0.57034  1.0000
  C   C49       1.0  0.49040  0.40546  0.13751  1.0000
  C   C50       1.0  0.51111  0.59019  0.87465  1.0000
  C   C51       1.0  0.01310  0.09087  0.13675  1.0000
  C   C52       1.0  0.40977  0.01683  0.36075  1.0000
  H   H31       1.0  0.53239  0.40500  0.15739  1.0000
  H   H32       1.0  0.47113  0.59653  0.83508  1.0000
  H   H33       1.0  0.97109  0.08840  0.15447  1.0000
  H   H34       1.0  0.41008  0.97605  0.34005  1.0000
  C   C53       1.0  0.45799  0.43235  0.24837  1.0000
  C   C54       1.0  0.54243  0.55511  0.78818  1.0000
  C   C55       1.0  0.04680  0.06548  0.24666  1.0000
  C   C56       1.0  0.43885  0.04835  0.25554  1.0000
  C   C57       1.0  0.40353  0.43111  0.21892  1.0000
  C   C58       1.0  0.59450  0.54749  0.84000  1.0000
  C   C59       1.0  0.10122  0.07035  0.22077  1.0000
  C   C60       1.0  0.43629  0.10129  0.28342  1.0000
  H   H35       1.0  0.37755  0.45327  0.29699  1.0000
  H   H36       1.0  0.61884  0.52040  0.77339  1.0000
  H   H37       1.0  0.12837  0.04970  0.29876  1.0000
  H   H38       1.0  0.45972  0.12647  0.20793  1.0000
  C   C61       1.0  0.38258  0.40473  0.08665  1.0000
  C   C62       1.0  0.61388  0.57245  0.97776  1.0000
  C   C63       1.0  0.12081  0.09853  0.09122  1.0000
  C   C64       1.0  0.40695  0.12163  0.41140  1.0000
  H   H39       1.0  0.34060  0.40455  0.06546  1.0000
  H   H40       1.0  0.65358  0.56616  0.02086  1.0000
  H   H41       1.0  0.16269  0.10095  0.06992  1.0000
  H   H42       1.0  0.40606  0.16238  0.43268  1.0000
  C   C65       1.0  0.47968  0.46193  0.38616  1.0000
  C   C66       1.0  0.52100  0.52528  0.65060  1.0000
  C   C67       1.0  0.02579  0.03432  0.38075  1.0000
  C   C68       1.0  0.98256  0.97206  0.64519  1.0000
  C   C69       1.0  0.53366  0.98262  0.85610  1.0000
  C   C70       1.0  0.47108  0.02680  0.12245  1.0000
  C   C71       1.0  0.97086  0.52170  0.86489  1.0000
  C   C72       1.0  0.03785  0.47385  0.11155  1.0000
  C   C73       1.0  0.45159  0.47213  0.53219  1.0000
  C   C74       1.0  0.54978  0.51407  0.50752  1.0000
  C   C75       1.0  0.05138  0.02735  0.53269  1.0000
  C   C76       1.0  0.95741  0.97863  0.49250  1.0000
  C   C77       1.0  0.52759  0.95929  0.01067  1.0000
  C   C78       1.0  0.47843  0.05107  0.97011  1.0000
  C   C79       1.0  0.98879  0.54754  0.00555  1.0000
  C   C80       1.0  0.01929  0.44790  0.97159  1.0000
  C   C81       1.0  0.47059  0.50404  0.66027  1.0000
  C   C82       1.0  0.52969  0.48412  0.37957  1.0000
  C   C83       1.0  0.03145  0.99652  0.66164  1.0000
  C   C84       1.0  0.97813  0.00808  0.36566  1.0000
  C   C85       1.0  0.49779  0.98032  0.13855  1.0000
  C   C86       1.0  0.50926  0.03059  0.83969  1.0000
  C   C87       1.0  0.02187  0.52522  0.12595  1.0000
  C   C88       1.0  0.98714  0.47082  0.85309  1.0000
  N   N9        1.0  0.43499  0.50629  0.78969  1.0000
  H   H43       1.0  0.55283  0.47937  0.26817  1.0000
  N   N10       1.0  0.06528  0.99783  0.79603  1.0000
  H   H44       1.0  0.95736  0.00928  0.24892  1.0000
  H   H45       1.0  0.49668  0.96089  0.25644  1.0000
  N   N11       1.0  0.50821  0.06315  0.70518  1.0000
  N   N12       1.0  0.03146  0.55989  0.25228  1.0000
  H   H46       1.0  0.97581  0.44914  0.74463  1.0000
  C   C89       1.0  0.39651  0.47641  0.74437  1.0000
  C   C90       1.0  0.10332  0.02835  0.75270  1.0000
  C   C91       1.0  0.47800  0.10122  0.75028  1.0000
  C   C92       1.0  0.00489  0.60081  0.21211  1.0000
  H   H47       1.0  0.36220  0.46776  0.81665  1.0000
  H   H48       1.0  0.13641  0.03885  0.82827  1.0000
  H   H49       1.0  0.46792  0.13371  0.67558  1.0000
  H   H50       1.0  0.00256  0.63538  0.28435  1.0000
  N   N13       1.0  0.40403  0.45483  0.59069  1.0000
  H   H51       1.0  0.58831  0.53077  0.49286  1.0000
  N   N14       1.0  0.09729  0.04735  0.59586  1.0000
  H   H52       1.0  0.92082  0.95895  0.46988  1.0000
  H   H53       1.0  0.54812  0.92390  0.03422  1.0000
  N   N15       1.0  0.45861  0.09602  0.90766  1.0000
  N   N16       1.0  0.97920  0.59621  0.06421  1.0000
  H   H54       1.0  0.03133  0.40878  0.95133  1.0000
  H   H55       1.0  0.38134  0.42738  0.53985  1.0000
  H   H56       1.0  0.11936  0.07515  0.54535  1.0000
  H   H57       1.0  0.43147  0.11889  0.96128  1.0000
  H   H58       1.0  0.94973  0.61963  0.02923  1.0000
  C   C93       1.0  0.26814  0.34597  0.43365  1.0000
  C   C94       1.0  0.27929  0.29786  0.36970  1.0000
  C  Sn1       1.0  0.31503  0.26619  0.44917  1.0000
  C  Sn2       1.0  0.33998  0.28310  0.59539  1.0000
  C   C95       1.0  0.32852  0.33129  0.65844  1.0000
  C   C96       1.0  0.29271  0.36267  0.57789  1.0000
  H   H59       1.0  0.24041  0.37025  0.37140  1.0000
  O  Te1       1.0  0.32574  0.21824  0.38358  1.0000
  O  Te2       1.0  0.37583  0.25221  0.67733  1.0000
  H   H60       1.0  0.28406  0.39991  0.62750  1.0000
  Mg  Mg1       1.0  0.37750  0.19002  0.53981  1.0000
  C   C97       1.0  0.81789  0.76437  0.45802  1.0000
  C   C98       1.0  0.79040  0.77908  0.59912  1.0000
  C  Sn3       1.0  0.77786  0.83005  0.62574  1.0000
  C  Sn4       1.0  0.79316  0.86690  0.50868  1.0000
  C   C99       1.0  0.82062  0.85179  0.36785  1.0000
  C   C100      1.0  0.83297  0.80068  0.34246  1.0000
  H   H61       1.0  0.82742  0.72482  0.43831  1.0000
  O  Te3       1.0  0.75040  0.84410  0.76742  1.0000
  O  Te4       1.0  0.78112  0.91810  0.53220  1.0000
  H   H62       1.0  0.85422  0.78930  0.23315  1.0000
  Mg  Mg2       1.0  0.74313  0.91852  0.74454  1.0000
  C   C101      1.0  0.12424  0.46762  0.45310  1.0000
  C   C102      1.0  0.12068  0.41816  0.51281  1.0000
  C  Sn5       1.0  0.09207  0.38166  0.42649  1.0000
  C  Sn6       1.0  0.06662  0.39506  0.27763  1.0000
  C   C103      1.0  0.07046  0.44464  0.21886  1.0000
  C   C104      1.0  0.09917  0.48086  0.30626  1.0000
  H   H63       1.0  0.14648  0.49564  0.52066  1.0000
  O  Te5       1.0  0.08889  0.33242  0.48792  1.0000
  O  Te6       1.0  0.03780  0.35933  0.18885  1.0000
  H   H64       1.0  0.10196  0.51915  0.25994  1.0000
  Mg  Mg3       1.0  0.04498  0.29715  0.32273  1.0000
  C   C105      1.0  0.87926  0.92293  0.89135  1.0000
  C   C106      1.0  0.90346  0.89503  0.01931  1.0000
  C  Sn7       1.0  0.95787  0.89396  0.03142  1.0000
  C  Sn8       1.0  0.98851  0.92134  0.91306  1.0000
  C   C107      1.0  0.96389  0.94764  0.78558  1.0000
  C   C108      1.0  0.90942  0.94845  0.77460  1.0000
  H   H65       1.0  0.83711  0.92358  0.88290  1.0000
  O  Te7       1.0  0.98145  0.86742  0.16001  1.0000
  O  Te8       1.0  0.04297  0.92091  0.92228  1.0000
  H   H66       1.0  0.89066  0.96890  0.67557  1.0000
  Mg  Mg4       1.0  0.05694  0.87793  0.12013  1.0000
  C   C109      1.0  0.86610  0.53420  0.57746  1.0000
  C   C110      1.0  0.87243  0.58147  0.50324  1.0000
  C  Sn9       1.0  0.91545  0.61165  0.54252  1.0000
  C  Sn10      1.0  0.95276  0.59407  0.65828  1.0000
  C   C111      1.0  0.94609  0.54670  0.73176  1.0000
  C   C112      1.0  0.90289  0.51682  0.69160  1.0000
  H   H67       1.0  0.83269  0.51107  0.54633  1.0000
  O  Te9       1.0  0.92116  0.65879  0.46727  1.0000
  O  Te10      1.0  0.99613  0.62345  0.69974  1.0000
  H   H68       1.0  0.89802  0.48021  0.74900  1.0000
  Mg  Mg5       1.0  0.98679  0.68500  0.56416  1.0000
  C   C113      1.0  0.21618  0.14162  0.50347  1.0000
  C   C114      1.0  0.18315  0.16069  0.62612  1.0000
  C  Sn11      1.0  0.16480  0.21056  0.61817  1.0000
  C  Sn12      1.0  0.17986  0.24183  0.48478  1.0000
  C   C115      1.0  0.21289  0.22238  0.36263  1.0000
  C   C116      1.0  0.23104  0.17243  0.37183  1.0000
  H   H69       1.0  0.23020  0.10296  0.51052  1.0000
  O  Te11      1.0  0.13184  0.22900  0.74178  1.0000
  O  Te12      1.0  0.16208  0.29180  0.47376  1.0000
  H   H70       1.0  0.25658  0.15767  0.27679  1.0000
  Mg  Mg6       1.0  0.11788  0.29965  0.67236  1.0000
  C   C117      1.0  0.58645  0.87955  0.62344  1.0000
  C   C118      1.0  0.60865  0.90113  0.48320  1.0000
  C  Sn13      1.0  0.60943  0.95376  0.46464  1.0000
  C  Sn14      1.0  0.58756  0.98526  0.58903  1.0000
  C   C119      1.0  0.56547  0.96330  0.72892  1.0000
  C   C120      1.0  0.56489  0.91059  0.74621  1.0000
  H   H71       1.0  0.58602  0.83877  0.63688  1.0000
  O  Te13      1.0  0.63175  0.97470  0.32372  1.0000
  O  Te14      1.0  0.59108  0.03797  0.57364  1.0000
  H   H72       1.0  0.54773  0.89389  0.85486  1.0000
  Mg  Mg7       1.0  0.62597  0.04857  0.35904  1.0000
