data_image0
_chemical_formula_structural       C16H16N16C8H8C24H8C8H8C8H8C18H8C8H8C2SnCSn2CSnTe4Mg2SnCSn2CSnTe4Mg2SnCSn2CSnTe4Mg2SnCSn2CSnTe4Mg2SnCSn2CSnTe4Mg2SnCSn2CSnTe4Mg2SnCSn2CSnTe4Mg2SnCSn2CSnTe4Mg2SnCSn2CSnTe4Mg2SnCSn2CSnTe4Mg2SnCSn2CSnTe4Mg2SnCSn2CSnTe4Mg2
_chemical_formula_sum              "C116 H64 N16 Sn48 Te48 Mg24"
_cell_length_a       25.7451
_cell_length_b       25.8218
_cell_length_c       7.77158
_cell_angle_alpha    89.6407
_cell_angle_beta     89.7388
_cell_angle_gamma    90.2575

_symmetry_space_group_name_H-M    'P1'
_space_group_IT_number       1

loop_
  _space_group_symop_operation_xyz
  'x, y, z'

loop_
  _atom_site_type_symbol
  _atom_site_label
  _atom_site_symmetry_multiplicity
  _atom_site_fract_x
  _atom_site_fract_y
  _atom_site_fract_z
  _atom_site_occupancy
  C   C1        1.0  0.51680  0.58482  0.62557  1.0000
  C   C2        1.0  0.48263  0.41363  0.36432  1.0000
  C   C3        1.0  0.98485  0.41614  0.12456  1.0000
  C   C4        1.0  0.02094  0.58186  0.86978  1.0000
  C   C5        1.0  0.16549  0.77280  0.87389  1.0000
  C   C6        1.0  0.83506  0.23232  0.11848  1.0000
  C   C7        1.0  0.33623  0.23073  0.38354  1.0000
  C   C8        1.0  0.66319  0.77106  0.61761  1.0000
  C   C9        1.0  0.02039  0.08334  0.12795  1.0000
  C   C10       1.0  0.98074  0.91488  0.87427  1.0000
  C   C11       1.0  0.48052  0.91603  0.63436  1.0000
  C   C12       1.0  0.51996  0.08265  0.37309  1.0000
  C   C13       1.0  0.66964  0.26788  0.37254  1.0000
  C   C14       1.0  0.32894  0.73778  0.62683  1.0000
  C   C15       1.0  0.83252  0.72810  0.87894  1.0000
  C   C16       1.0  0.16677  0.27067  0.12206  1.0000
  H   H1        1.0  0.54900  0.55772  0.60258  1.0000
  H   H2        1.0  0.45051  0.44103  0.38393  1.0000
  H   H3        1.0  0.95219  0.44301  0.10648  1.0000
  H   H4        1.0  0.05353  0.55486  0.88770  1.0000
  H   H5        1.0  0.19217  0.80581  0.85419  1.0000
  H   H6        1.0  0.80824  0.19924  0.13362  1.0000
  H   H7        1.0  0.30835  0.19874  0.36611  1.0000
  H   H8        1.0  0.69148  0.80266  0.63578  1.0000
  H   H9        1.0  0.05279  0.05628  0.10830  1.0000
  H   H10       1.0  0.94873  0.94244  0.89361  1.0000
  H   H11       1.0  0.44897  0.94424  0.61682  1.0000
  H   H12       1.0  0.55226  0.05539  0.39207  1.0000
  H   H13       1.0  0.69545  0.30178  0.35760  1.0000
  H   H14       1.0  0.30163  0.70512  0.64280  1.0000
  H   H15       1.0  0.80443  0.69629  0.86119  1.0000
  H   H16       1.0  0.19375  0.30348  0.13850  1.0000
  N   N1        1.0  0.48779  0.58124  0.76121  1.0000
  N   N2        1.0  0.51234  0.41636  0.22995  1.0000
  N   N3        1.0  0.01551  0.41947  0.25531  1.0000
  N   N4        1.0  0.99090  0.57924  0.73723  1.0000
  N   N5        1.0  0.16819  0.74330  0.00843  1.0000
  N   N6        1.0  0.83242  0.26342  0.98779  1.0000
  N   N7        1.0  0.33402  0.26067  0.51615  1.0000
  N   N8        1.0  0.66499  0.74150  0.48405  1.0000
  N   N9        1.0  0.99049  0.08029  0.26166  1.0000
  N   N10       1.0  0.01085  0.91751  0.74089  1.0000
  N   N11       1.0  0.51052  0.91738  0.76729  1.0000
  N   N12       1.0  0.48982  0.07978  0.24096  1.0000
  N   N13       1.0  0.67370  0.23643  0.50177  1.0000
  N   N14       1.0  0.32653  0.76883  0.49598  1.0000
  N   N15       1.0  0.82993  0.75866  0.00975  1.0000
  N   N16       1.0  0.17011  0.23988  0.99205  1.0000
  C   C17       1.0  0.54868  0.63307  0.37097  1.0000
  C   C18       1.0  0.11720  0.80361  0.61828  1.0000
  C   C19       1.0  0.88006  0.19938  0.37752  1.0000
  C   C20       1.0  0.61654  0.80386  0.87443  1.0000
  C   C21       1.0  0.55293  0.12925  0.62730  1.0000
  C   C22       1.0  0.37591  0.70320  0.87984  1.0000
  C   C23       1.0  0.87981  0.69481  0.62374  1.0000
  C   C24       1.0  0.11959  0.30253  0.37845  1.0000
  H   H17       1.0  0.58254  0.60796  0.36978  1.0000
  H   H18       1.0  0.14111  0.83852  0.61725  1.0000
  H   H19       1.0  0.85401  0.16603  0.37836  1.0000
  H   H20       1.0  0.64242  0.83733  0.87448  1.0000
  H   H21       1.0  0.58638  0.10361  0.62763  1.0000
  H   H22       1.0  0.34974  0.66996  0.88015  1.0000
  H   H23       1.0  0.85373  0.66149  0.62299  1.0000
  H   H24       1.0  0.14523  0.33617  0.38032  1.0000
  C   C25       1.0  0.51017  0.62566  0.49702  1.0000
  C   C26       1.0  0.12553  0.76533  0.74367  1.0000
  C   C27       1.0  0.87473  0.23783  0.25057  1.0000
  C   C28       1.0  0.62269  0.76559  0.74876  1.0000
  C   C29       1.0  0.51428  0.12292  0.50258  1.0000
  C   C30       1.0  0.36955  0.74244  0.75631  1.0000
  C   C31       1.0  0.87367  0.73297  0.74980  1.0000
  C   C32       1.0  0.12605  0.26468  0.25169  1.0000
  C   C33       1.0  0.50136  0.70527  0.24712  1.0000
  C   C34       1.0  0.04682  0.75334  0.49438  1.0000
  C   C35       1.0  0.95287  0.24544  0.50321  1.0000
  C   C36       1.0  0.54341  0.75736  0.00069  1.0000
  C   C37       1.0  0.50674  0.20176  0.75241  1.0000
  C   C38       1.0  0.44956  0.74854  0.00335  1.0000
  C   C39       1.0  0.95323  0.74128  0.49855  1.0000
  C   C40       1.0  0.04658  0.25513  0.50146  1.0000
  C   C41       1.0  0.54454  0.67262  0.24855  1.0000
  C   C42       1.0  0.07808  0.79781  0.49591  1.0000
  C   C43       1.0  0.91884  0.20307  0.50211  1.0000
  C   C44       1.0  0.57718  0.79992  0.99825  1.0000
  C   C45       1.0  0.54937  0.16837  0.75007  1.0000
  C   C46       1.0  0.41566  0.70607  0.00124  1.0000
  C   C47       1.0  0.91935  0.69875  0.50031  1.0000
  C   C48       1.0  0.08012  0.29786  0.50149  1.0000
  H   H25       1.0  0.57551  0.67807  0.15476  1.0000
  H   H26       1.0  0.07181  0.82860  0.40256  1.0000
  H   H27       1.0  0.92284  0.17241  0.59751  1.0000
  H   H28       1.0  0.57283  0.83051  0.09252  1.0000
  H   H29       1.0  0.58027  0.17283  0.84362  1.0000
  H   H30       1.0  0.42034  0.67462  0.09327  1.0000
  H   H31       1.0  0.92357  0.66834  0.40529  1.0000
  H   H32       1.0  0.07542  0.32790  0.59752  1.0000
  C   C49       1.0  0.46268  0.69779  0.37443  1.0000
  C   C50       1.0  0.05525  0.71496  0.62118  1.0000
  C   C51       1.0  0.94726  0.28412  0.37551  1.0000
  C   C52       1.0  0.54965  0.71893  0.87398  1.0000
  C   C53       1.0  0.46787  0.19523  0.62672  1.0000
  C   C54       1.0  0.44307  0.78797  0.87869  1.0000
  C   C55       1.0  0.94712  0.77938  0.62656  1.0000
  C   C56       1.0  0.05297  0.21724  0.37294  1.0000
  H   H33       1.0  0.42960  0.72385  0.37892  1.0000
  H   H34       1.0  0.03010  0.68099  0.62627  1.0000
  H   H35       1.0  0.97441  0.31655  0.37122  1.0000
  H   H36       1.0  0.52268  0.68637  0.87077  1.0000
  H   H37       1.0  0.43516  0.22176  0.62315  1.0000
  H   H38       1.0  0.47002  0.82057  0.87481  1.0000
  H   H39       1.0  0.97399  0.81200  0.63102  1.0000
  H   H40       1.0  0.02620  0.18453  0.36746  1.0000
  C   C57       1.0  0.46686  0.65888  0.49749  1.0000
  C   C58       1.0  0.09383  0.72070  0.74361  1.0000
  C   C59       1.0  0.90897  0.28056  0.25138  1.0000
  C   C60       1.0  0.58847  0.72283  0.75026  1.0000
  C   C61       1.0  0.47141  0.15664  0.50399  1.0000
  C   C62       1.0  0.40383  0.78511  0.75745  1.0000
  C   C63       1.0  0.90821  0.77545  0.74979  1.0000
  C   C64       1.0  0.09199  0.22180  0.25034  1.0000
  H   H41       1.0  0.43740  0.65407  0.59730  1.0000
  H   H42       1.0  0.09955  0.69152  0.84325  1.0000
  H   H43       1.0  0.90549  0.30978  0.15067  1.0000
  H   H44       1.0  0.59250  0.69365  0.65085  1.0000
  H   H45       1.0  0.44183  0.15257  0.40547  1.0000
  H   H46       1.0  0.39952  0.81495  0.65931  1.0000
  H   H47       1.0  0.90419  0.80453  0.84957  1.0000
  H   H48       1.0  0.09639  0.19311  0.14949  1.0000
  C   C65       1.0  0.49664  0.75241  0.12486  1.0000
  C   C66       1.0  0.50242  0.24859  0.87437  1.0000
  C   C67       1.0  0.99980  0.24971  0.62509  1.0000
  C   C68       1.0  0.99982  0.74685  0.37353  1.0000
  C   C69       1.0  0.00927  0.46015  0.37179  1.0000
  C   C70       1.0  0.99713  0.53882  0.61990  1.0000
  C   C71       1.0  0.70665  0.74634  0.36848  1.0000
  C   C72       1.0  0.99615  0.03911  0.37786  1.0000
  C   C73       1.0  0.00580  0.95878  0.62460  1.0000
  C   C74       1.0  0.50559  0.95838  0.88308  1.0000
  C   C75       1.0  0.49565  0.03863  0.12627  1.0000
  C   C76       1.0  0.78817  0.75435  0.12483  1.0000
  C   C77       1.0  0.99839  0.51147  0.32094  1.0000
  C   C78       1.0  0.75849  0.75340  0.42229  1.0000
  C   C79       1.0  0.99715  0.01029  0.67645  1.0000
  C   C80       1.0  0.49747  0.00994  0.82916  1.0000
  C   C81       1.0  0.50407  0.98713  0.18025  1.0000
  C   C82       1.0  0.73639  0.74731  0.07084  1.0000
  H   H49       1.0  0.99606  0.52094  0.18437  1.0000
  H   H50       1.0  0.01049  0.47796  0.80711  1.0000
  H   H51       1.0  0.76731  0.75430  0.55937  1.0000
  H   H52       1.0  0.00638  0.97859  0.18923  1.0000
  H   H53       1.0  0.99520  0.01916  0.81329  1.0000
  H   H54       1.0  0.49640  0.01889  0.69201  1.0000
  H   H55       1.0  0.50552  0.97812  0.31727  1.0000
  H   H56       1.0  0.72794  0.74627  0.93353  1.0000
  C   C83       1.0  0.01473  0.44898  0.54846  1.0000
  C   C84       1.0  0.99169  0.55000  0.44314  1.0000
  C   C85       1.0  0.69638  0.74271  0.19085  1.0000
  C   C86       1.0  0.99177  0.04965  0.55506  1.0000
  C   C87       1.0  0.01018  0.94825  0.44740  1.0000
  C   C88       1.0  0.50953  0.94774  0.06052  1.0000
  C   C89       1.0  0.49189  0.04926  0.94881  1.0000
  C   C90       1.0  0.79848  0.75803  0.30235  1.0000
  H   H57       1.0  0.02214  0.40917  0.58719  1.0000
  H   H58       1.0  0.98437  0.58976  0.40373  1.0000
  H   H59       1.0  0.65635  0.73818  0.14916  1.0000
  H   H60       1.0  0.98584  0.08948  0.59501  1.0000
  H   H61       1.0  0.01550  0.90837  0.40708  1.0000
  H   H62       1.0  0.51453  0.90786  0.10264  1.0000
  H   H63       1.0  0.48675  0.08916  0.90734  1.0000
  H   H64       1.0  0.83858  0.76235  0.34371  1.0000
  C   C91       1.0  0.00807  0.48748  0.67059  1.0000
  C   C92       1.0  0.00490  0.98762  0.32598  1.0000
  C  Sn1       1.0  0.45345  0.85101  0.24422  1.0000
  C   C93       1.0  0.49205  0.81360  0.22478  1.0000
  C  Sn2       1.0  0.52704  0.80376  0.35778  1.0000
  C  Sn3       1.0  0.52334  0.83188  0.51351  1.0000
  C   C94       1.0  0.48476  0.86926  0.53290  1.0000
  C  Sn4       1.0  0.44976  0.87913  0.39995  1.0000
  O  Te1       1.0  0.41889  0.86021  0.10956  1.0000
  O  Te2       1.0  0.56531  0.76618  0.33531  1.0000
  O  Te3       1.0  0.55794  0.82265  0.64820  1.0000
  O  Te4       1.0  0.41150  0.91668  0.42237  1.0000
  Mg  Mg1       1.0  0.60333  0.76761  0.55610  1.0000
  Mg  Mg2       1.0  0.37344  0.91526  0.20171  1.0000
  C  Sn5       1.0  0.60264  0.29225  0.98221  1.0000
  C   C95       1.0  0.56465  0.25368  0.96881  1.0000
  C  Sn6       1.0  0.55681  0.22131  0.10547  1.0000
  C  Sn7       1.0  0.58613  0.22571  0.25878  1.0000
  C   C96       1.0  0.62409  0.26427  0.27214  1.0000
  C  Sn8       1.0  0.63335  0.29855  0.13552  1.0000
  O  Te5       1.0  0.61122  0.32609  0.84398  1.0000
  O  Te6       1.0  0.51863  0.18305  0.08903  1.0000
  O  Te7       1.0  0.57753  0.19184  0.39706  1.0000
  O  Te8       1.0  0.67149  0.33680  0.15192  1.0000
  Mg  Mg3       1.0  0.52130  0.14616  0.31290  1.0000
  Mg  Mg4       1.0  0.66746  0.37183  0.92818  1.0000
  C  Sn9       1.0  0.04730  0.62571  0.18946  1.0000
  C   C97       1.0  0.01392  0.61442  0.05330  1.0000
  C  Sn10      1.0  0.97655  0.65025  0.00135  1.0000
  C  Sn11      1.0  0.97248  0.69838  0.08720  1.0000
  C   C98       1.0  0.00585  0.70965  0.22324  1.0000
  C  Sn12      1.0  0.04323  0.67384  0.27531  1.0000
  O  Te9       1.0  0.08437  0.58931  0.23921  1.0000
  O  Te10      1.0  0.94222  0.63619  0.86492  1.0000
  O  Te11      1.0  0.93537  0.73478  0.03732  1.0000
  O  Te12      1.0  0.07617  0.68599  0.41162  1.0000
  Mg  Mg5       1.0  0.89801  0.69844  0.84445  1.0000
  Mg  Mg6       1.0  0.12041  0.62378  0.43215  1.0000
  C  Sn13      1.0  0.04300  0.81791  0.12332  1.0000
  C   C99       1.0  0.00820  0.80455  0.25498  1.0000
  C  Sn14      1.0  0.95753  0.82367  0.25399  1.0000
  C  Sn15      1.0  0.94129  0.85681  0.11853  1.0000
  C   C100      1.0  0.97469  0.86826  0.98695  1.0000
  C  Sn16      1.0  0.02537  0.84917  0.98785  1.0000
  O  Te13      1.0  0.09347  0.79835  0.12691  1.0000
  O  Te14      1.0  0.92345  0.80978  0.38706  1.0000
  O  Te15      1.0  0.89078  0.87638  0.11504  1.0000
  O  Te16      1.0  0.05944  0.86303  0.85487  1.0000
  Mg  Mg7       1.0  0.85867  0.84632  0.32513  1.0000
  Mg  Mg8       1.0  0.12422  0.82649  0.91662  1.0000
  C  Sn17      1.0  0.28985  0.78253  0.16662  1.0000
  C   C101      1.0  0.28456  0.77905  0.34537  1.0000
  C  Sn18      1.0  0.24037  0.75623  0.41886  1.0000
  C  Sn19      1.0  0.20065  0.73645  0.31146  1.0000
  C   C102      1.0  0.20596  0.73993  0.13283  1.0000
  C  Sn20      1.0  0.25013  0.76275  0.05922  1.0000
  O  Te17      1.0  0.33436  0.80549  0.09594  1.0000
  O  Te18      1.0  0.23595  0.75322  0.59791  1.0000
  O  Te19      1.0  0.15612  0.71348  0.38230  1.0000
  O  Te20      1.0  0.25318  0.76387  0.88029  1.0000
  Mg  Mg9       1.0  0.16800  0.71844  0.63312  1.0000
  Mg  Mg10      1.0  0.32112  0.79861  0.84494  1.0000
  C  Sn21      1.0  0.97271  0.19869  0.93875  1.0000
  C   C103      1.0  0.00550  0.20956  0.79922  1.0000
  C  Sn22      1.0  0.04199  0.17317  0.74509  1.0000
  C  Sn23      1.0  0.04576  0.12491  0.83217  1.0000
  C   C104      1.0  0.01297  0.11406  0.97159  1.0000
  C  Sn24      1.0  0.97786  0.15232  0.02583  1.0000
  O  Te21      1.0  0.93651  0.23564  0.99064  1.0000
  O  Te22      1.0  0.07436  0.18492  0.60531  1.0000
  O  Te23      1.0  0.08199  0.08796  0.78016  1.0000
  O  Te24      1.0  0.94550  0.14059  0.16550  1.0000
  Mg  Mg11      1.0  0.11744  0.12198  0.58291  1.0000
  Mg  Mg12      1.0  0.90239  0.20349  0.18795  1.0000
  C  Sn25      1.0  0.21003  0.22494  0.66748  1.0000
  C   C105      1.0  0.21330  0.22927  0.84626  1.0000
  C  Sn26      1.0  0.25697  0.25180  0.92181  1.0000
  C  Sn27      1.0  0.29822  0.27042  0.81646  1.0000
  C   C106      1.0  0.29493  0.26609  0.63780  1.0000
  C  Sn28      1.0  0.25128  0.24356  0.56213  1.0000
  O  Te25      1.0  0.16601  0.20228  0.59473  1.0000
  O  Te26      1.0  0.26074  0.25758  0.10084  1.0000
  O  Te27      1.0  0.34226  0.29309  0.88937  1.0000
  O  Te28      1.0  0.24888  0.23967  0.38322  1.0000
  Mg  Mg13      1.0  0.32878  0.29151  0.13930  1.0000
  Mg  Mg14      1.0  0.18085  0.20578  0.34462  1.0000
  C  Sn29      1.0  0.04370  0.34070  0.94319  1.0000
  C   C107      1.0  0.00470  0.37762  0.96437  1.0000
  C  Sn30      1.0  0.95649  0.37111  0.88546  1.0000
  C  Sn31      1.0  0.94704  0.32675  0.78334  1.0000
  C   C108      1.0  0.98602  0.28986  0.76222  1.0000
  C  Sn32      1.0  0.03425  0.29634  0.84107  1.0000
  O  Te29      1.0  0.09299  0.34989  0.02329  1.0000
  O  Te30      1.0  0.91812  0.40856  0.90847  1.0000
  O  Te31      1.0  0.89909  0.31948  0.70322  1.0000
  O  Te32      1.0  0.07261  0.25892  0.81812  1.0000
  Mg  Mg15      1.0  0.85917  0.38126  0.77317  1.0000
  Mg  Mg16      1.0  0.13156  0.28616  0.95342  1.0000
  C  Sn33      1.0  0.45218  0.27728  0.18809  1.0000
  C   C109      1.0  0.46287  0.24361  0.05250  1.0000
  C  Sn34      1.0  0.42626  0.20655  0.00306  1.0000
  C  Sn35      1.0  0.37795  0.20310  0.09088  1.0000
  C   C110      1.0  0.36727  0.23676  0.22636  1.0000
  C  Sn36      1.0  0.40387  0.27382  0.27592  1.0000
  O  Te33      1.0  0.48935  0.31403  0.23533  1.0000
  O  Te34      1.0  0.43646  0.17141  0.86715  1.0000
  O  Te35      1.0  0.34077  0.16631  0.04352  1.0000
  O  Te36      1.0  0.39230  0.30706  0.41171  1.0000
  Mg  Mg17      1.0  0.37324  0.12783  0.85040  1.0000
  Mg  Mg18      1.0  0.45548  0.35068  0.42851  1.0000
  C  Sn37      1.0  0.50800  0.54562  0.08714  1.0000
  C   C111      1.0  0.50587  0.54054  0.90772  1.0000
  C  Sn38      1.0  0.49983  0.49266  0.82736  1.0000
  C  Sn39      1.0  0.49441  0.44702  0.92842  1.0000
  C   C112      1.0  0.49653  0.45211  0.10772  1.0000
  C  Sn40      1.0  0.50257  0.49997  0.18820  1.0000
  O  Te37      1.0  0.51407  0.59389  0.16474  1.0000
  O  Te38      1.0  0.49922  0.49046  0.64779  1.0000
  O  Te39      1.0  0.48833  0.39872  0.85066  1.0000
  O  Te40      1.0  0.50318  0.50219  0.36766  1.0000
  Mg  Mg19      1.0  0.48992  0.41566  0.60194  1.0000
  Mg  Mg20      1.0  0.51245  0.57697  0.41364  1.0000
  C  Sn41      1.0  0.79456  0.27792  0.65971  1.0000
  C   C113      1.0  0.78986  0.27321  0.83835  1.0000
  C  Sn42      1.0  0.74665  0.24850  0.91151  1.0000
  C  Sn43      1.0  0.70733  0.22804  0.80389  1.0000
  C   C114      1.0  0.71205  0.23274  0.62537  1.0000
  C  Sn44      1.0  0.75525  0.25746  0.55209  1.0000
  O  Te41      1.0  0.83809  0.30278  0.58937  1.0000
  O  Te42      1.0  0.74418  0.24617  0.09045  1.0000
  O  Te43      1.0  0.66378  0.20317  0.87440  1.0000
  O  Te44      1.0  0.75912  0.26168  0.37327  1.0000
  Mg  Mg21      1.0  0.67752  0.20894  0.12518  1.0000
  Mg  Mg22      1.0  0.82576  0.29888  0.33840  1.0000
  C  Sn45      1.0  0.54622  0.31969  0.62359  1.0000
  C   C115      1.0  0.51096  0.30640  0.75397  1.0000
  C  Sn46      1.0  0.45990  0.32440  0.74848  1.0000
  C  Sn47      1.0  0.44373  0.35632  0.60973  1.0000
  C   C116      1.0  0.47898  0.36959  0.47943  1.0000
  C  Sn48      1.0  0.53005  0.35162  0.48483  1.0000
  O  Te45      1.0  0.59707  0.30126  0.63169  1.0000
  O  Te46      1.0  0.42536  0.31060  0.88036  1.0000
  O  Te47      1.0  0.39284  0.37475  0.60172  1.0000
  O  Te48      1.0  0.56457  0.36539  0.35305  1.0000
  Mg  Mg23      1.0  0.36017  0.34532  0.81185  1.0000
  Mg  Mg24      1.0  0.62976  0.33067  0.42137  1.0000
