data_new_xtal_PM
_symmetry_space_group_name_H-M    'P1'
_cell_length_a    20.390000
_cell_length_b    20.390000
_cell_length_c    23.090000
_cell_angle_alpha    90.000000
_cell_angle_beta    90.000000
_cell_angle_gamma    90.000000
_symmetry_Int_Tables_number 1

loop_
_symmetry_equiv_pos_as_xyz
'x,y,z'

loop_
_atom_site_label
_atom_site_type_symbol
_atom_site_fract_x
_atom_site_fract_y
_atom_site_fract_z
C1    C    0.798850    0.135550    0.698250
C2    C    0.768790    0.189780    0.729480
C3    C    0.840560    0.225510    0.661160
C4    C    0.795100    0.246530    0.706080
C5    C    0.722560    0.190810    0.774410
O1    O    0.787380    0.077770    0.707210
O2    O    0.872980    0.262410    0.631070
N1    N    0.842040    0.158270    0.657190
H1    H    0.702240    0.142840    0.792320
C6    C    0.201150    0.864450    0.698250
C7    C    0.231210    0.810220    0.729480
C8    C    0.159440    0.774490    0.661160
C9    C    0.204900    0.753470    0.706080
C10    C    0.277440    0.809190    0.774410
O3    O    0.212620    0.922230    0.707210
O4    O    0.127020    0.737590    0.631070
N2    N    0.157960    0.841730    0.657190
H2    H    0.297760    0.857160    0.792320
C11    C    0.364450    0.298850    0.198250
C12    C    0.310220    0.268790    0.229480
C13    C    0.274490    0.340560    0.161160
C14    C    0.253470    0.295100    0.206080
C15    C    0.309190    0.222560    0.274410
O5    O    0.422230    0.287380    0.207210
O6    O    0.237590    0.372980    0.131070
N3    N    0.341730    0.342040    0.157190
H3    H    0.357160    0.202240    0.292320
C16    C    0.635550    0.701150    0.198250
C17    C    0.689780    0.731210    0.229480
C18    C    0.725510    0.659440    0.161160
C19    C    0.746530    0.704900    0.206080
C20    C    0.690810    0.777440    0.274410
O7    O    0.577770    0.712620    0.207210
O8    O    0.762410    0.627020    0.131070
N4    N    0.658270    0.657960    0.157190
H4    H    0.642840    0.797760    0.292320
C21    C    0.701150    0.364450    0.801750
C22    C    0.731210    0.310220    0.770520
C23    C    0.659440    0.274490    0.838840
C24    C    0.704900    0.253470    0.793920
C25    C    0.777440    0.309190    0.725590
O9    O    0.712620    0.422230    0.792790
O10    O    0.627020    0.237590    0.868930
N5    N    0.657960    0.341730    0.842810
H5    H    0.797760    0.357160    0.707680
C26    C    0.298850    0.635550    0.801750
C27    C    0.268790    0.689780    0.770520
C28    C    0.340560    0.725510    0.838840
C29    C    0.295100    0.746530    0.793920
C30    C    0.222560    0.690810    0.725590
O11    O    0.287380    0.577770    0.792790
O12    O    0.372980    0.762410    0.868930
N6    N    0.342040    0.658270    0.842810
H6    H    0.202240    0.642840    0.707680
C31    C    0.135550    0.201150    0.301750
C32    C    0.189780    0.231210    0.270520
C33    C    0.225510    0.159440    0.338840
C34    C    0.246530    0.204900    0.293920
C35    C    0.190810    0.277440    0.225590
O13    O    0.077770    0.212620    0.292790
O14    O    0.262410    0.127020    0.368930
N7    N    0.158270    0.157960    0.342810
H7    H    0.142840    0.297760    0.207680
C36    C    0.864450    0.798850    0.301750
C37    C    0.810220    0.768790    0.270520
C38    C    0.774490    0.840560    0.338840
C39    C    0.753470    0.795100    0.293920
C40    C    0.809190    0.722560    0.225590
O15    O    0.922230    0.787380    0.292790
O16    O    0.737590    0.872980    0.368930
N8    N    0.841730    0.842040    0.342810
H8    H    0.857160    0.702240    0.207680
C41    C    0.000000    0.000000    0.500000
C42    C    0.500000    0.500000    0.000000
Sn43    C    0.461658    0.611841    0.960722
Sn44    C    0.415472    0.512241    0.919675
Sn45    C    0.377277    0.550430    0.880929
Sn46    C    0.423463    0.650030    0.921976
C47    C    0.457391    0.543224    0.959313
C48    C    0.381529    0.619094    0.882335
Te17    O    0.411570    0.443670    0.918614
Te18    O    0.335208    0.520013    0.841209
Te19    O    0.427365    0.718601    0.923037
Te20    O    0.503681    0.642243    0.000449
Mg1    Mg    0.491678    0.736815    0.984995
Mg2    Mg    0.347211    0.425441    0.856663
Sn49    C    0.111841    0.038342    0.460722
Sn50    C    0.012241    0.084528    0.419675
Sn51    C    0.050430    0.122723    0.380929
Sn52    C    0.150030    0.076537    0.421976
C53    C    0.043224    0.042609    0.459313
C54    C    0.119094    0.118471    0.382335
Te21    O    0.943670    0.088430    0.418614
Te22    O    0.020013    0.164792    0.341209
Te23    O    0.218601    0.072635    0.423037
Te24    O    0.142243    0.996319    0.500449
Mg3    Mg    0.236815    0.008322    0.484995
Mg4    Mg    0.925441    0.152789    0.356663
Sn55    C    0.512250    0.584526    0.080323
Sn56    C    0.611848    0.538337    0.039273
Sn57    C    0.650039    0.576531    0.078019
Sn58    C    0.550441    0.622720    0.119069
C59    C    0.543211    0.542615    0.040693
C60    C    0.619072    0.618482    0.117674
Te25    O    0.642297    0.496320    0.999525
Te26    O    0.718609    0.572695    0.076942
Te27    O    0.519992    0.664737    0.158817
Te28    O    0.443710    0.588386    0.081374
Mg5    Mg    0.425448    0.652714    0.143331
Mg6    Mg    0.736871    0.508368    0.014985
Sn61    C    0.076538    0.849964    0.578032
Sn62    C    0.122727    0.949561    0.619082
Sn63    C    0.084540    0.987752    0.580330
Sn64    C    0.038351    0.888154    0.539280
C65    C    0.118464    0.880924    0.617650
C66    C    0.042590    0.956785    0.540675
Te29    O    0.164752    0.980010    0.658824
Te30    O    0.088457    0.056319    0.581342
Te31    O    0.996326    0.857706    0.499539
Te32    O    0.072653    0.781425    0.577000
Mg7    Mg    0.008345    0.763162    0.515028
Mg8    Mg    0.152766    0.074582    0.643314
Sn67    C    0.849964    0.923462    0.421968
Sn68    C    0.949561    0.877273    0.380918
Sn69    C    0.987752    0.915460    0.419670
Sn70    C    0.888154    0.961649    0.460720
C71    C    0.880924    0.881536    0.382350
C72    C    0.956785    0.957410    0.459325
Te33    O    0.980010    0.835248    0.341176
Te34    O    0.056319    0.911543    0.418658
Te35    O    0.857706    0.003674    0.500461
Te36    O    0.781425    0.927347    0.423000
Mg9    Mg    0.763162    0.991655    0.484972
Mg10    Mg    0.074582    0.847234    0.356686
Sn73    C    0.877278    0.050445    0.619077
Sn74    C    0.923464    0.150046    0.578030
Sn75    C    0.961652    0.111857    0.539278
Sn76    C    0.915466    0.012256    0.580325
C77    C    0.881530    0.119063    0.617656
C78    C    0.957400    0.043193    0.540684
Te37    O    0.927358    0.218617    0.576962
Te38    O    0.003639    0.142277    0.499493
Te39    O    0.911572    0.943685    0.581393
Te40    O    0.835280    0.020042    0.658823
Mg11    Mg    0.847263    0.925471    0.643354
Mg12    Mg    0.991656    0.236848    0.514962
Sn79    C    0.622722    0.449555    0.880923
Sn80    C    0.576536    0.349954    0.921970
Sn81    C    0.538348    0.388143    0.960722
Sn82    C    0.584534    0.487744    0.919675
C83    C    0.618470    0.380937    0.882344
C84    C    0.542600    0.456807    0.959316
Te41    O    0.572642    0.281383    0.923038
Te42    O    0.496361    0.357723    0.000507
Te43    O    0.588428    0.556315    0.918607
Te44    O    0.664720    0.479958    0.841177
Mg13    Mg    0.652737    0.574529    0.856646
Mg14    Mg    0.508344    0.263152    0.985038
Sn85    C    0.388159    0.461658    0.039278
Sn86    C    0.487759    0.415472    0.080325
Sn87    C    0.449570    0.377277    0.119071
Sn88    C    0.349970    0.423463    0.078024
C89    C    0.456776    0.457391    0.040687
C90    C    0.380906    0.381529    0.117665
Te45    O    0.556330    0.411570    0.081386
Te46    O    0.479987    0.335208    0.158791
Te47    O    0.281399    0.427365    0.076963
Te48    O    0.357757    0.503681    0.999551
Mg15    Mg    0.263185    0.491678    0.015005
Mg16    Mg    0.574559    0.347211    0.143337

loop_
_geom_bond_atom_site_label_1
_geom_bond_atom_site_label_2
_geom_bond_distance
C1    C2    0.06942
C1    O1    0.05958
C1    N1    0.06378
C2    C4    0.06679
C2    C5    0.06447
C3    C4    0.06728
C3    O2    0.05760
C3    N1    0.06737
C4    C25    0.06796
C5    H1    0.05509
C5    C24    0.06796
N1    C77    0.06826
C6    C7    0.06942
C6    O3    0.05958
C6    N2    0.06378
C7    C9    0.06679
C7    C10    0.06447
C8    C9    0.06728
C8    O4    0.05760
C8    N2    0.06737
C9    C30    0.06796
C10    H2    0.05509
C10    C29    0.06796
N2    C65    0.06826
C11    C12    0.06942
C11    O5    0.05958
C11    N3    0.06378
C12    C14    0.06679
C12    C15    0.06447
C13    C14    0.06728
C13    O6    0.05760
C13    N3    0.06737
C14    C35    0.06796
C15    H3    0.05509
C15    C34    0.06796
N3    C90    0.06824
C16    C17    0.06942
C16    O7    0.05958
C16    N4    0.06378
C17    C19    0.06679
C17    C20    0.06447
C18    C19    0.06728
C18    O8    0.05760
C18    N4    0.06737
C19    C40    0.06796
C20    H4    0.05509
C20    C39    0.06796
N4    C60    0.06824
C21    C22    0.06942
C21    O9    0.05958
C21    N5    0.06378
C22    C24    0.06679
C22    C25    0.06447
C23    C24    0.06728
C23    O10    0.05760
C23    N5    0.06737
C25    H5    0.05509
N5    C83    0.06826
C26    C27    0.06942
C26    O11    0.05958
C26    N6    0.06378
C27    C29    0.06679
C27    C30    0.06447
C28    C29    0.06728
C28    O12    0.05760
C28    N6    0.06737
C30    H6    0.05509
N6    C48    0.06824
C31    C32    0.06942
C31    O13    0.05958
C31    N7    0.06378
C32    C34    0.06679
C32    C35    0.06447
C33    C34    0.06728
C33    O14    0.05760
C33    N7    0.06737
C35    H7    0.05509
N7    C54    0.06824
C36    C37    0.06942
C36    O15    0.05958
C36    N8    0.06378
C37    C39    0.06679
C37    C40    0.06447
C38    C39    0.06728
C38    O16    0.05760
C38    N8    0.06737
C40    H8    0.05509
N8    C71    0.06826
C41    C53    0.07307
C41    C66    0.07305
C41    C72    0.07305
C41    C78    0.07305
C42    C47    0.07307
C42    C59    0.07307
C42    C84    0.07305
C42    C89    0.07307
Sn43    Sn46    0.06647
Sn43    C47    0.06876
Sn43    Te20    0.06533
Sn44    Sn45    0.06647
Sn44    C47    0.06549
Sn44    Te17    0.06869
Sn45    C48    0.06881
Sn45    Te18    0.06537
Sn46    C48    0.06547
Sn46    Te19    0.06869
Te17    Mg2    0.09117
Te18    Mg2    0.09657
Te19    Mg1    0.09114
Te20    Mg1    0.09657
Sn49    Sn52    0.06647
Sn49    C53    0.06876
Sn49    Te24    0.06533
Sn50    Sn51    0.06647
Sn50    C53    0.06549
Sn50    Te21    0.06869
Sn51    C54    0.06881
Sn51    Te22    0.06537
Sn52    C54    0.06547
Sn52    Te23    0.06869
Te21    Mg4    0.09117
Te22    Mg4    0.09657
Te23    Mg3    0.09114
Te24    Mg3    0.09657
Sn55    Sn58    0.06647
Sn55    C59    0.06546
Sn55    Te28    0.06866
Sn56    Sn57    0.06647
Sn56    C59    0.06878
Sn56    Te25    0.06536
Sn57    C60    0.06551
Sn57    Te26    0.06869
Sn58    C60    0.06878
Sn58    Te27    0.06536
Te25    Mg6    0.09658
Te26    Mg6    0.09116
Te27    Mg5    0.09656
Te28    Mg5    0.09116
Sn61    Sn64    0.06647
Sn61    C65    0.06547
Sn61    Te32    0.06866
Sn62    Sn63    0.06647
Sn62    C65    0.06878
Sn62    Te29    0.06537
Sn63    C66    0.06551
Sn63    Te30    0.06869
Sn64    C66    0.06878
Sn64    Te31    0.06537
Te29    Mg8    0.09658
Te30    Mg8    0.09116
Te31    Mg7    0.09656
Te32    Mg7    0.09116
Sn67    Sn70    0.06647
Sn67    C71    0.06547
Sn67    Te36    0.06866
Sn68    Sn69    0.06647
Sn68    C71    0.06878
Sn68    Te33    0.06537
Sn69    C72    0.06551
Sn69    Te34    0.06869
Sn70    C72    0.06878
Sn70    Te35    0.06537
Te33    Mg10    0.09658
Te34    Mg10    0.09116
Te35    Mg9    0.09656
Te36    Mg9    0.09116
Sn73    Sn76    0.06647
Sn73    C77    0.06876
Sn73    Te40    0.06533
Sn74    Sn75    0.06647
Sn74    C77    0.06549
Sn74    Te37    0.06869
Sn75    C78    0.06881
Sn75    Te38    0.06535
Sn76    C78    0.06547
Sn76    Te39    0.06869
Te37    Mg12    0.09116
Te38    Mg12    0.09657
Te39    Mg11    0.09114
Te40    Mg11    0.09657
Sn79    Sn82    0.06647
Sn79    C83    0.06876
Sn79    Te44    0.06533
Sn80    Sn81    0.06647
Sn80    C83    0.06549
Sn80    Te41    0.06869
Sn81    C84    0.06881
Sn81    Te42    0.06535
Sn82    C84    0.06547
Sn82    Te43    0.06869
Te41    Mg14    0.09116
Te42    Mg14    0.09657
Te43    Mg13    0.09114
Te44    Mg13    0.09657
Sn85    Sn88    0.06647
Sn85    C89    0.06876
Sn85    Te48    0.06533
Sn86    Sn87    0.06647
Sn86    C89    0.06549
Sn86    Te45    0.06869
Sn87    C90    0.06881
Sn87    Te46    0.06537
Sn88    C90    0.06547
Sn88    Te47    0.06869
Te45    Mg16    0.09117
Te46    Mg16    0.09657
Te47    Mg15    0.09114
Te48    Mg15    0.09657
