data_new_xtal_PM
_symmetry_space_group_name_H-M    'P1'
_cell_length_a    18.661200
_cell_length_b    18.661200
_cell_length_c    30.684500
_cell_angle_alpha    90.000000
_cell_angle_beta    90.000000
_cell_angle_gamma    90.000000
_symmetry_Int_Tables_number 1

loop_
_symmetry_equiv_pos_as_xyz
'x,y,z'

loop_
_atom_site_label
_atom_site_type_symbol
_atom_site_fract_x
_atom_site_fract_y
_atom_site_fract_z
C1    C    0.876860    0.890630    0.977360
C2    C    0.123140    0.109370    0.977360
C3    C    0.109370    0.876860    0.477360
C4    C    0.890630    0.123140    0.477360
C5    C    0.123140    0.109370    0.022640
C6    C    0.876860    0.890630    0.022640
C7    C    0.890630    0.123140    0.522640
C8    C    0.109370    0.876860    0.522640
S1    S    0.055140    0.936920    0.451960
S2    S    0.944860    0.063080    0.451960
S3    S    0.063080    0.055140    0.951960
S4    S    0.936920    0.944860    0.951960
S5    S    0.944860    0.063080    0.548040
S6    S    0.055140    0.936920    0.548040
S7    S    0.936920    0.944860    0.048040
S8    S    0.063080    0.055140    0.048040
N1    N    0.334470    0.681230    0.365940
N2    N    0.665530    0.318770    0.365940
N3    N    0.318770    0.334470    0.865940
N4    N    0.681230    0.665530    0.865940
N5    N    0.665530    0.318770    0.634060
N6    N    0.334470    0.681230    0.634060
N7    N    0.681230    0.665530    0.134060
N8    N    0.318770    0.334470    0.134060
C9    C    0.265090    0.683290    0.366920
C10    C    0.734910    0.316710    0.366920
C11    C    0.316710    0.265090    0.866920
C12    C    0.683290    0.734910    0.866920
C13    C    0.734910    0.316710    0.633080
C14    C    0.265090    0.683290    0.633080
C15    C    0.683290    0.734910    0.133080
C16    C    0.316710    0.265090    0.133080
H1    H    0.232610    0.646640    0.344740
H2    H    0.767390    0.353360    0.344740
H3    H    0.353360    0.232610    0.844740
H4    H    0.646640    0.767390    0.844740
H5    H    0.767390    0.353360    0.655260
H6    H    0.232610    0.646640    0.655260
H7    H    0.646640    0.767390    0.155260
H8    H    0.353360    0.232610    0.155260
C17    C    0.024010    0.972800    0.500000
C18    C    0.975990    0.027200    0.500000
C19    C    0.027200    0.024010    0.000000
C20    C    0.972800    0.975990    0.000000
C21    C    0.500000    0.500000    0.250000
C22    C    0.500000    0.500000    0.750000
Sn23    C    0.848313    0.268538    0.395516
Sn24    C    0.736172    0.220752    0.423456
Sn25    C    0.774864    0.173393    0.450934
Sn26    C    0.887004    0.221179    0.422993
C27    C    0.773179    0.268008    0.395942
C28    C    0.850048    0.173919    0.450519
Te1    O    0.661117    0.220641    0.423635
Te2    O    0.738464    0.126031    0.478568
Te3    O    0.962060    0.221290    0.422814
Te4    O    0.884693    0.315910    0.367911
Mg1    Mg    0.986869    0.295670    0.379539
Mg2    Mg    0.636288    0.146271    0.466940
Sn29    C    0.510676    0.407185    0.689658
Sn30    C    0.620868    0.453985    0.720889
Sn31    C    0.661420    0.410150    0.692265
Sn32    C    0.551228    0.363349    0.661034
C33    C    0.545768    0.452182    0.719388
C34    C    0.626320    0.365109    0.662517
Te5    O    0.655404    0.499122    0.750704
Te6    O    0.736432    0.411468    0.693511
Te7    O    0.516692    0.318213    0.631219
Te8    O    0.435696    0.405839    0.688431
Mg3    Mg    0.413792    0.335528    0.642147
Mg4    Mg    0.758337    0.481778    0.739795
Sn35    C    0.546020    0.620861    0.220886
Sn36    C    0.592817    0.510666    0.189656
Sn37    C    0.636654    0.551216    0.161032
Sn38    C    0.589856    0.661411    0.192261
C39    C    0.547812    0.545783    0.219392
C40    C    0.634881    0.626344    0.162524
Te9    O    0.594208    0.435650    0.188422
Te10    O    0.681847    0.516712    0.131239
Te11    O    0.588466    0.736426    0.193495
Te12    O    0.500876    0.655346    0.250684
Mg5    Mg    0.518169    0.758277    0.239780
Mg6    Mg    0.664554    0.413781    0.142143
Sn41    C    0.112989    0.778831    0.422994
Sn42    C    0.225127    0.826620    0.450937
Sn43    C    0.263821    0.779254    0.423464
Sn44    C    0.151683    0.731465    0.395522
C45    C    0.149971    0.826063    0.450513
C46    C    0.226830    0.731977    0.395929
Te13    O    0.261559    0.874010    0.478542
Te14    O    0.338872    0.779303    0.423653
Te15    O    0.115251    0.684075    0.367917
Te16    O    0.037970    0.778756    0.422826
Mg7    Mg    0.013107    0.704359    0.379556
Mg8    Mg    0.363735    0.853700    0.466923
Sn47    C    0.379139    0.546020    0.279114
Sn48    C    0.489334    0.592817    0.310344
Sn49    C    0.448784    0.636654    0.338968
Sn50    C    0.338589    0.589856    0.307739
C51    C    0.454217    0.547812    0.280608
C52    C    0.373656    0.634881    0.337476
Te17    O    0.564350    0.594208    0.311578
Te18    O    0.483288    0.681847    0.368761
Te19    O    0.263574    0.588466    0.306505
Te20    O    0.344654    0.500876    0.249316
Mg9    Mg    0.241723    0.518169    0.260220
Mg10    Mg    0.586219    0.664554    0.357857
Sn53    C    0.551233    0.363347    0.338973
Sn54    C    0.661427    0.410144    0.307743
Sn55    C    0.620877    0.453973    0.279114
Sn56    C    0.510683    0.407175    0.310344
C57    C    0.626311    0.365122    0.337470
C58    C    0.545749    0.452199    0.280606
Te21    O    0.736443    0.411526    0.306504
Te22    O    0.655381    0.499077    0.249272
Te23    O    0.435667    0.405794    0.311583
Te24    O    0.516747    0.318229    0.368786
Mg11    Mg    0.413816    0.335502    0.357870
Mg12    Mg    0.758312    0.481805    0.260187
Sn59    C    0.453980    0.379139    0.220886
Sn60    C    0.407183    0.489334    0.189656
Sn61    C    0.363346    0.448784    0.161032
Sn62    C    0.410144    0.338589    0.192261
C63    C    0.452188    0.454217    0.219392
C64    C    0.365119    0.373656    0.162524
Te25    O    0.405792    0.564350    0.188422
Te26    O    0.318153    0.483288    0.131239
Te27    O    0.411534    0.263574    0.193495
Te28    O    0.499124    0.344654    0.250684
Mg13    Mg    0.481831    0.241723    0.239780
Mg14    Mg    0.335446    0.586219    0.142143
Sn65    C    0.589858    0.661417    0.807745
Sn66    C    0.636658    0.551226    0.838976
Sn67    C    0.592831    0.510673    0.810348
Sn68    C    0.546030    0.620865    0.779116
C69    C    0.634871    0.626325    0.837466
C70    C    0.547791    0.545774    0.780599
Te29    O    0.681804    0.516689    0.868786
Te30    O    0.594237    0.435661    0.811544
Te31    O    0.500885    0.655402    0.749307
Te32    O    0.588486    0.736398    0.806533
Mg15    Mg    0.518196    0.758302    0.760237
Mg16    Mg    0.664527    0.413756    0.857840
Sn71    C    0.268538    0.151687    0.104484
Sn72    C    0.220752    0.263828    0.076544
Sn73    C    0.173393    0.225136    0.049066
Sn74    C    0.221179    0.112996    0.077007
C75    C    0.268008    0.226821    0.104058
C76    C    0.173919    0.149952    0.049481
Te33    O    0.220641    0.338883    0.076365
Te34    O    0.126031    0.261536    0.021432
Te35    O    0.221290    0.037940    0.077186
Te36    O    0.315910    0.115307    0.132089
Mg17    Mg    0.295670    0.013131    0.120461
Mg18    Mg    0.146271    0.363712    0.033060
Sn77    C    0.826614    0.774880    0.049066
Sn78    C    0.778829    0.887021    0.077007
Sn79    C    0.731462    0.848329    0.104480
Sn80    C    0.779248    0.736189    0.076539
C81    C    0.826069    0.850015    0.049483
C82    C    0.731987    0.773146    0.104064
Te37    O    0.778709    0.962076    0.077180
Te38    O    0.684017    0.884729    0.132061
Te39    O    0.779368    0.661133    0.076366
Te40    O    0.874011    0.738500    0.021477
Mg19    Mg    0.853751    0.636324    0.033093
Mg20    Mg    0.704277    0.986905    0.120445
Sn83    C    0.887011    0.221169    0.577006
Sn84    C    0.774873    0.173380    0.549063
Sn85    C    0.736179    0.220746    0.576536
Sn86    C    0.848317    0.268535    0.604478
C87    C    0.850029    0.173937    0.549487
C88    C    0.773170    0.268023    0.604071
Te41    O    0.738441    0.125990    0.521458
Te42    O    0.661128    0.220697    0.576347
Te43    O    0.884749    0.315925    0.632083
Te44    O    0.962030    0.221244    0.577174
Mg21    Mg    0.986893    0.295641    0.620444
Mg22    Mg    0.636265    0.146300    0.533077
Sn89    C    0.363347    0.448767    0.838973
Sn90    C    0.410144    0.338573    0.807743
Sn91    C    0.453973    0.379123    0.779114
Sn92    C    0.407175    0.489317    0.810344
C93    C    0.365122    0.373689    0.837470
C94    C    0.452199    0.454251    0.780606
Te45    O    0.411526    0.263557    0.806504
Te46    O    0.499077    0.344619    0.749272
Te47    O    0.405794    0.564333    0.811583
Te48    O    0.318229    0.483253    0.868786
Mg23    Mg    0.335502    0.586184    0.857870
Mg24    Mg    0.481805    0.241688    0.760187
Sn95    C    0.221169    0.112989    0.922994
Sn96    C    0.173380    0.225127    0.950937
Sn97    C    0.220746    0.263821    0.923464
Sn98    C    0.268535    0.151683    0.895522
C99    C    0.173937    0.149971    0.950513
C100    C    0.268023    0.226830    0.895929
Te49    O    0.125990    0.261559    0.978542
Te50    O    0.220697    0.338872    0.923653
Te51    O    0.315925    0.115251    0.867917
Te52    O    0.221244    0.037970    0.922826
Mg25    Mg    0.295641    0.013107    0.879556
Mg26    Mg    0.146300    0.363735    0.966923
Sn101    C    0.225120    0.826614    0.549066
Sn102    C    0.112979    0.778829    0.577007
Sn103    C    0.151671    0.731462    0.604480
Sn104    C    0.263811    0.779248    0.576539
C105    C    0.149985    0.826069    0.549483
C106    C    0.226854    0.731987    0.604064
Te53    O    0.037924    0.778709    0.577180
Te54    O    0.115271    0.684017    0.632061
Te55    O    0.338867    0.779368    0.576366
Te56    O    0.261500    0.874011    0.521477
Mg27    Mg    0.363676    0.853751    0.533093
Mg28    Mg    0.013095    0.704277    0.620445
Sn107    C    0.779245    0.736183    0.923455
Sn108    C    0.731457    0.848320    0.895512
Sn109    C    0.778815    0.887014    0.922990
Sn110    C    0.826604    0.774876    0.950932
C111    C    0.731998    0.773164    0.895946
C112    C    0.826091    0.850023    0.950525
Te57    O    0.684058    0.884752    0.867912
Te58    O    0.778683    0.962065    0.922854
Te59    O    0.874002    0.738444    0.978532
Te60    O    0.779346    0.661164    0.923607
Mg29    Mg    0.853723    0.636300    0.966890
Mg30    Mg    0.704306    0.986929    0.879571
Sn113    C    0.338583    0.589858    0.692255
Sn114    C    0.448774    0.636658    0.661024
Sn115    C    0.489327    0.592831    0.689652
Sn116    C    0.379135    0.546030    0.720884
C117    C    0.373675    0.634871    0.662534
C118    C    0.454226    0.547791    0.719401
Te61    O    0.483311    0.681804    0.631214
Te62    O    0.564339    0.594237    0.688456
Te63    O    0.344598    0.500885    0.750693
Te64    O    0.263602    0.588486    0.693467
Mg31    Mg    0.241698    0.518196    0.739763
Mg32    Mg    0.586244    0.664527    0.642160

loop_
_geom_bond_atom_site_label_1
_geom_bond_atom_site_label_2
_geom_bond_distance
C1    C6    0.04528
C1    S4    0.08481
C1    C112    0.07033
C2    C5    0.04528
C2    S3    0.08481
C2    C99    0.07035
C3    C8    0.04528
C3    S1    0.08481
C3    C45    0.07035
C4    C7    0.04528
C4    S2    0.08481
C4    C28    0.07033
C5    S8    0.08481
C5    C76    0.07033
C6    S7    0.08481
C6    C81    0.07036
C7    S5    0.08481
C7    C87    0.07035
C8    S6    0.08481
C8    C105    0.07036
S1    C17    0.06756
S2    C18    0.06756
S3    C19    0.06756
S4    C20    0.06756
S5    C18    0.06756
S6    C17    0.06756
S7    C20    0.06756
S8    C19    0.06756
N1    C9    0.06942
N1    C52    0.06704
N2    C10    0.06942
N2    C57    0.06706
N3    C11    0.06942
N3    C93    0.06706
N4    C12    0.06942
N4    C69    0.06706
N5    C13    0.06942
N5    C34    0.06704
N6    C14    0.06942
N6    C117    0.06706
N7    C15    0.06942
N7    C40    0.06704
N8    C16    0.06942
N8    C64    0.06704
C9    H1    0.05376
C9    C46    0.06838
C10    H2    0.05376
C10    C27    0.06840
C11    H3    0.05376
C11    C100    0.06838
C12    H4    0.05376
C12    C111    0.06840
C13    H5    0.05376
C13    C88    0.06838
C14    H6    0.05376
C14    C106    0.06838
C15    H7    0.05376
C15    C82    0.06838
C16    H8    0.05376
C16    C75    0.06840
C17    C18    0.07256
C19    C20    0.07256
C21    C39    0.07293
C21    C51    0.07293
C21    C58    0.07290
C21    C63    0.07293
C22    C33    0.07293
C22    C70    0.07291
C22    C94    0.07290
C22    C118    0.07291
Sn23    Sn26    0.06704
Sn23    C27    0.07514
Sn23    Te4    0.06580
Sn24    Sn25    0.06704
Sn24    C27    0.06603
Sn24    Te1    0.07506
Sn25    C28    0.07519
Sn25    Te2    0.06582
Sn26    C28    0.06601
Sn26    Te3    0.07506
Te1    Mg2    0.08957
Te2    Mg2    0.10481
Te3    Mg1    0.08956
Te4    Mg1    0.10481
Sn29    Sn32    0.06622
Sn29    C33    0.06434
Sn29    Te8    0.07500
Sn30    Sn31    0.06622
Sn30    C33    0.07514
Sn30    Te5    0.06418
Sn31    C34    0.06439
Sn31    Te6    0.07503
Sn32    C34    0.07513
Sn32    Te7    0.06418
Te5    Mg4    0.10495
Te6    Mg4    0.08698
Te7    Mg3    0.10492
Te8    Mg3    0.08698
Sn35    Sn38    0.06622
Sn35    C39    0.07511
Sn35    Te12    0.06415
Sn36    Sn37    0.06622
Sn36    C39    0.06437
Sn36    Te9    0.07504
Sn37    C40    0.07516
Sn37    Te10    0.06419
Sn38    C40    0.06435
Sn38    Te11    0.07504
Te9    Mg6    0.08700
Te10    Mg6    0.10494
Te11    Mg5    0.08696
Te12    Mg5    0.10494
Sn41    Sn44    0.06705
Sn41    C45    0.06600
Sn41    Te16    0.07502
Sn42    Sn43    0.06705
Sn42    C45    0.07516
Sn42    Te13    0.06584
Sn43    C46    0.06604
Sn43    Te14    0.07505
Sn44    C46    0.07515
Sn44    Te15    0.06584
Te13    Mg8    0.10482
Te14    Mg8    0.08958
Te15    Mg7    0.10479
Te16    Mg7    0.08958
Sn47    Sn50    0.06622
Sn47    C51    0.07511
Sn47    Te20    0.06415
Sn48    Sn49    0.06622
Sn48    C51    0.06437
Sn48    Te17    0.07504
Sn49    C52    0.07516
Sn49    Te18    0.06419
Sn50    C52    0.06435
Sn50    Te19    0.07504
Te17    Mg10    0.08700
Te18    Mg10    0.10494
Te19    Mg9    0.08696
Te20    Mg9    0.10494
Sn53    Sn56    0.06622
Sn53    C57    0.07511
Sn53    Te24    0.06414
Sn54    Sn55    0.06622
Sn54    C57    0.06437
Sn54    Te21    0.07504
Sn55    C58    0.07516
Sn55    Te22    0.06415
Sn56    C58    0.06435
Sn56    Te23    0.07504
Te21    Mg12    0.08696
Te22    Mg12    0.10494
Te23    Mg11    0.08695
Te24    Mg11    0.10494
Sn59    Sn62    0.06622
Sn59    C63    0.07511
Sn59    Te28    0.06415
Sn60    Sn61    0.06622
Sn60    C63    0.06437
Sn60    Te25    0.07504
Sn61    C64    0.07516
Sn61    Te26    0.06419
Sn62    C64    0.06435
Sn62    Te27    0.07504
Te25    Mg14    0.08700
Te26    Mg14    0.10494
Te27    Mg13    0.08696
Te28    Mg13    0.10494
Sn65    Sn68    0.06622
Sn65    C69    0.06435
Sn65    Te32    0.07500
Sn66    Sn67    0.06622
Sn66    C69    0.07514
Sn66    Te29    0.06418
Sn67    C70    0.06439
Sn67    Te30    0.07504
Sn68    C70    0.07513
Sn68    Te31    0.06418
Te29    Mg16    0.10494
Te30    Mg16    0.08697
Te31    Mg15    0.10492
Te32    Mg15    0.08697
Sn71    Sn74    0.06704
Sn71    C75    0.07514
Sn71    Te36    0.06580
Sn72    Sn73    0.06704
Sn72    C75    0.06603
Sn72    Te33    0.07506
Sn73    C76    0.07519
Sn73    Te34    0.06582
Sn74    C76    0.06601
Sn74    Te35    0.07506
Te33    Mg18    0.08957
Te34    Mg18    0.10481
Te35    Mg17    0.08956
Te36    Mg17    0.10481
Sn77    Sn80    0.06705
Sn77    C81    0.07514
Sn77    Te40    0.06581
Sn78    Sn79    0.06705
Sn78    C81    0.06602
Sn78    Te37    0.07506
Sn79    C82    0.07519
Sn79    Te38    0.06585
Sn80    C82    0.06601
Sn80    Te39    0.07506
Te37    Mg20    0.08960
Te38    Mg20    0.10481
Te39    Mg19    0.08956
Te40    Mg19    0.10481
Sn83    Sn86    0.06705
Sn83    C87    0.06600
Sn83    Te44    0.07502
Sn84    Sn85    0.06705
Sn84    C87    0.07516
Sn84    Te41    0.06584
Sn85    C88    0.06604
Sn85    Te42    0.07505
Sn86    C88    0.07515
Sn86    Te43    0.06584
Te41    Mg22    0.10482
Te42    Mg22    0.08958
Te43    Mg21    0.10479
Te44    Mg21    0.08958
Sn89    Sn92    0.06622
Sn89    C93    0.07511
Sn89    Te48    0.06414
Sn90    Sn91    0.06622
Sn90    C93    0.06437
Sn90    Te45    0.07504
Sn91    C94    0.07516
Sn91    Te46    0.06415
Sn92    C94    0.06435
Sn92    Te47    0.07504
Te45    Mg24    0.08696
Te46    Mg24    0.10494
Te47    Mg23    0.08695
Te48    Mg23    0.10494
Sn95    Sn98    0.06705
Sn95    C99    0.06600
Sn95    Te52    0.07502
Sn96    Sn97    0.06705
Sn96    C99    0.07516
Sn96    Te49    0.06584
Sn97    C100    0.06604
Sn97    Te50    0.07505
Sn98    C100    0.07515
Sn98    Te51    0.06584
Te49    Mg26    0.10482
Te50    Mg26    0.08958
Te51    Mg25    0.10479
Te52    Mg25    0.08958
Sn101    Sn104    0.06705
Sn101    C105    0.07514
Sn101    Te56    0.06581
Sn102    Sn103    0.06705
Sn102    C105    0.06602
Sn102    Te53    0.07506
Sn103    C106    0.07519
Sn103    Te54    0.06585
Sn104    C106    0.06601
Sn104    Te55    0.07506
Te53    Mg28    0.08960
Te54    Mg28    0.10481
Te55    Mg27    0.08956
Te56    Mg27    0.10481
Sn107    Sn110    0.06704
Sn107    C111    0.06601
Sn107    Te60    0.07502
Sn108    Sn109    0.06704
Sn108    C111    0.07516
Sn108    Te57    0.06585
Sn109    C112    0.06604
Sn109    Te58    0.07505
Sn110    C112    0.07515
Sn110    Te59    0.06585
Te57    Mg30    0.10481
Te58    Mg30    0.08957
Te59    Mg29    0.10479
Te60    Mg29    0.08957
Sn113    Sn116    0.06622
Sn113    C117    0.06435
Sn113    Te64    0.07500
Sn114    Sn115    0.06622
Sn114    C117    0.07514
Sn114    Te61    0.06418
Sn115    C118    0.06439
Sn115    Te62    0.07504
Sn116    C118    0.07513
Sn116    Te63    0.06418
Te61    Mg32    0.10494
Te62    Mg32    0.08697
Te63    Mg31    0.10492
Te64    Mg31    0.08697
