data_new_xtal_PM
_symmetry_space_group_name_H-M    'P1'
_cell_length_a    21.416100
_cell_length_b    21.416100
_cell_length_c    19.393600
_cell_angle_alpha    90.000000
_cell_angle_beta    90.000000
_cell_angle_gamma    90.000000
_symmetry_Int_Tables_number 1

loop_
_symmetry_equiv_pos_as_xyz
'x,y,z'

loop_
_atom_site_label
_atom_site_type_symbol
_atom_site_fract_x
_atom_site_fract_y
_atom_site_fract_z
N1    N    0.494700    0.225900    0.136490
N2    N    0.005300    0.274100    0.636490
N3    N    0.774100    0.994700    0.386490
N4    N    0.725900    0.505300    0.886490
N5    N    0.505300    0.274100    0.113510
N6    N    0.994700    0.225900    0.613510
N7    N    0.225900    0.505300    0.863510
N8    N    0.274100    0.994700    0.363510
N9    N    0.994700    0.725900    0.636490
N10    N    0.505300    0.774100    0.136490
N11    N    0.274100    0.494700    0.886490
N12    N    0.225900    0.005300    0.386490
N13    N    0.005300    0.774100    0.613510
N14    N    0.494700    0.725900    0.113510
N15    N    0.725900    0.005300    0.363510
N16    N    0.774100    0.494700    0.863510
C1    C    0.540320    0.202760    0.153780
C2    C    0.959680    0.297240    0.653780
C3    C    0.797240    0.040320    0.403780
C4    C    0.702760    0.459680    0.903780
C5    C    0.459680    0.297240    0.096220
C6    C    0.040320    0.202760    0.596220
C7    C    0.202760    0.459680    0.846220
C8    C    0.297240    0.040320    0.346220
C9    C    0.040320    0.702760    0.653780
C10    C    0.459680    0.797240    0.153780
C11    C    0.297240    0.540320    0.903780
C12    C    0.202760    0.959680    0.403780
C13    C    0.959680    0.797240    0.596220
C14    C    0.540320    0.702760    0.096220
C15    C    0.702760    0.959680    0.346220
C16    C    0.797240    0.540320    0.846220
H1    H    0.587100    0.221040    0.150370
H2    H    0.912900    0.278960    0.650370
H3    H    0.778960    0.087100    0.400370
H4    H    0.721040    0.412900    0.900370
H5    H    0.412900    0.278960    0.099630
H6    H    0.087100    0.221040    0.599630
H7    H    0.221040    0.412900    0.849630
H8    H    0.278960    0.087100    0.349630
H9    H    0.087100    0.721040    0.650370
H10    H    0.412900    0.778960    0.150370
H11    H    0.278960    0.587100    0.900370
H12    H    0.221040    0.912900    0.400370
H13    H    0.912900    0.778960    0.599630
H14    H    0.587100    0.721040    0.099630
H15    H    0.721040    0.912900    0.349630
H16    H    0.778960    0.587100    0.849630
C17    C    0.500000    0.000000    0.250000
C18    C    0.000000    0.500000    0.750000
C19    C    0.000000    0.000000    0.500000
C20    C    0.500000    0.500000    0.000000
Sn21    C    0.364265    0.967705    0.321968
Sn22    C    0.369049    0.080082    0.305109
Sn23    C    0.429086    0.073816    0.274953
Sn24    C    0.424303    0.961439    0.291811
C25    C    0.337052    0.026970    0.328396
C26    C    0.456325    0.014517    0.268503
Te1    O    0.341458    0.139071    0.311772
Te2    O    0.461431    0.126525    0.251462
Te3    O    0.451893    0.902450    0.285148
Te4    O    0.331917    0.915017    0.345413
Mg1    Mg    0.389185    0.845101    0.324826
Mg2    Mg    0.404163    0.196441    0.272048
Sn27    C    0.573806    0.070902    0.225047
Sn28    C    0.461429    0.075685    0.208188
Sn29    C    0.467693    0.135727    0.178040
Sn30    C    0.580071    0.130944    0.194899
C31    C    0.514539    0.043697    0.231494
C32    C    0.526992    0.162966    0.171592
Te5    O    0.402439    0.048099    0.214861
Te6    O    0.414974    0.168115    0.154654
Te7    O    0.639061    0.158529    0.188226
Te8    O    0.626497    0.038540    0.248460
Mg3    Mg    0.696410    0.095819    0.227899
Mg4    Mg    0.345060    0.110837    0.175216
Sn33    C    0.073806    0.070902    0.524953
Sn34    C    0.961429    0.075685    0.541812
Sn35    C    0.967693    0.135727    0.571960
Sn36    C    0.080071    0.130944    0.555101
C37    C    0.014539    0.043697    0.518506
C38    C    0.026992    0.162966    0.578408
Te9    O    0.902439    0.048099    0.535139
Te10    O    0.914974    0.168115    0.595346
Te11    O    0.139061    0.158529    0.561774
Te12    O    0.126497    0.038540    0.501540
Mg5    Mg    0.196410    0.095819    0.522101
Mg6    Mg    0.845060    0.110837    0.574784
Sn39    C    0.926194    0.929098    0.524953
Sn40    C    0.038571    0.924315    0.541812
Sn41    C    0.032307    0.864273    0.571960
Sn42    C    0.919929    0.869056    0.555101
C43    C    0.985461    0.956303    0.518506
C44    C    0.973008    0.837034    0.578408
Te13    O    0.097561    0.951901    0.535139
Te14    O    0.085026    0.831885    0.595346
Te15    O    0.860939    0.841471    0.561774
Te16    O    0.873503    0.961460    0.501540
Mg7    Mg    0.803590    0.904181    0.522101
Mg8    Mg    0.154940    0.889163    0.574784
Sn45    C    0.924313    0.961438    0.458188
Sn46    C    0.929101    0.073815    0.475049
Sn47    C    0.869059    0.080081    0.444902
Sn48    C    0.864272    0.967704    0.428041
C49    C    0.956303    0.014524    0.481492
C50    C    0.837033    0.026967    0.421589
Te17    O    0.961444    0.126549    0.498484
Te18    O    0.841426    0.139049    0.438272
Te19    O    0.831929    0.914970    0.404606
Te20    O    0.951921    0.902493    0.464853
Mg9    Mg    0.889222    0.845097    0.425192
Mg10    Mg    0.904126    0.196445    0.477933
Sn51    C    0.635735    0.532295    0.928032
Sn52    C    0.630951    0.419918    0.944891
Sn53    C    0.570914    0.426184    0.975047
Sn54    C    0.575697    0.538561    0.958189
C55    C    0.662948    0.473030    0.921604
C56    C    0.543675    0.485483    0.981497
Te21    O    0.658542    0.360929    0.938228
Te22    O    0.538569    0.373475    0.998538
Te23    O    0.548107    0.597550    0.964852
Te24    O    0.668083    0.584983    0.904587
Mg11    Mg    0.610815    0.654899    0.925174
Mg12    Mg    0.595837    0.303559    0.977952
Sn57    C    0.369050    0.580073    0.944890
Sn58    C    0.364263    0.467696    0.928030
Sn59    C    0.424301    0.461429    0.958186
Sn60    C    0.429088    0.573806    0.975047
C61    C    0.337053    0.526985    0.921606
C62    C    0.456326    0.514542    0.981501
Te25    O    0.331915    0.414961    0.904605
Te26    O    0.451889    0.402450    0.964920
Te27    O    0.461435    0.626541    0.998472
Te28    O    0.341455    0.639021    0.938194
Mg13    Mg    0.404144    0.696414    0.977880
Mg14    Mg    0.389200    0.345056    0.925234
Sn63    C    0.919927    0.369050    0.694890
Sn64    C    0.032304    0.364263    0.678030
Sn65    C    0.038571    0.424301    0.708186
Sn66    C    0.926194    0.429088    0.725047
C67    C    0.973015    0.337053    0.671606
C68    C    0.985458    0.456326    0.731501
Te29    O    0.085039    0.331915    0.654605
Te30    O    0.097550    0.451889    0.714920
Te31    O    0.873459    0.461435    0.748472
Te32    O    0.860979    0.341455    0.688194
Mg15    Mg    0.803586    0.404144    0.727880
Mg16    Mg    0.154944    0.389200    0.675234
Sn69    C    0.635735    0.032295    0.321968
Sn70    C    0.630951    0.919918    0.305109
Sn71    C    0.570914    0.926184    0.274953
Sn72    C    0.575697    0.038561    0.291811
C73    C    0.662948    0.973030    0.328396
C74    C    0.543675    0.985483    0.268503
Te33    O    0.658542    0.860929    0.311772
Te34    O    0.538569    0.873475    0.251462
Te35    O    0.548107    0.097550    0.285148
Te36    O    0.668083    0.084983    0.345413
Mg17    Mg    0.610815    0.154899    0.324826
Mg18    Mg    0.595837    0.803559    0.272048
Sn75    C    0.532295    0.364265    0.071968
Sn76    C    0.419918    0.369049    0.055109
Sn77    C    0.426184    0.429086    0.024953
Sn78    C    0.538561    0.424303    0.041811
C79    C    0.473030    0.337052    0.078396
C80    C    0.485483    0.456325    0.018503
Te37    O    0.360929    0.341458    0.061772
Te38    O    0.373475    0.461431    0.001462
Te39    O    0.597550    0.451893    0.035148
Te40    O    0.584983    0.331917    0.095413
Mg19    Mg    0.654899    0.389185    0.074826
Mg20    Mg    0.303559    0.404163    0.022048
Sn81    C    0.538562    0.924313    0.208188
Sn82    C    0.426185    0.929101    0.225049
Sn83    C    0.419919    0.869059    0.194902
Sn84    C    0.532296    0.864272    0.178041
C85    C    0.485476    0.956303    0.231492
C86    C    0.473033    0.837033    0.171589
Te41    O    0.373451    0.961444    0.248484
Te42    O    0.360951    0.841426    0.188272
Te43    O    0.585030    0.831929    0.154606
Te44    O    0.597507    0.951921    0.214853
Mg21    Mg    0.654903    0.889222    0.175192
Mg22    Mg    0.303555    0.904126    0.227933
Sn87    C    0.924313    0.461438    0.791812
Sn88    C    0.929101    0.573815    0.774951
Sn89    C    0.869059    0.580081    0.805098
Sn90    C    0.864272    0.467704    0.821959
C91    C    0.956303    0.514524    0.768508
C92    C    0.837033    0.526967    0.828411
Te45    O    0.961444    0.626549    0.751516
Te46    O    0.841426    0.639049    0.811728
Te47    O    0.831929    0.414970    0.845394
Te48    O    0.951921    0.402493    0.785147
Mg23    Mg    0.889222    0.345097    0.824808
Mg24    Mg    0.904126    0.696445    0.772067
Sn93    C    0.075687    0.038562    0.458188
Sn94    C    0.070899    0.926185    0.475049
Sn95    C    0.130941    0.919919    0.444902
Sn96    C    0.135728    0.032296    0.428041
C97    C    0.043697    0.985476    0.481492
C98    C    0.162967    0.973033    0.421589
Te49    O    0.038556    0.873451    0.498484
Te50    O    0.158574    0.860951    0.438272
Te51    O    0.168071    0.085030    0.404606
Te52    O    0.048079    0.097507    0.464853
Mg25    Mg    0.110778    0.154903    0.425192
Mg26    Mg    0.095874    0.803555    0.477933
Sn99    C    0.573806    0.570902    0.024953
Sn100    C    0.461429    0.575685    0.041812
Sn101    C    0.467693    0.635727    0.071960
Sn102    C    0.580071    0.630944    0.055101
C103    C    0.514539    0.543697    0.018506
C104    C    0.526992    0.662966    0.078408
Te53    O    0.402439    0.548099    0.035139
Te54    O    0.414974    0.668115    0.095346
Te55    O    0.639061    0.658529    0.061774
Te56    O    0.626497    0.538540    0.001540
Mg27    Mg    0.696410    0.595819    0.022101
Mg28    Mg    0.345060    0.610837    0.074784
Sn105    C    0.130950    0.419927    0.805110
Sn106    C    0.135737    0.532304    0.821970
Sn107    C    0.075699    0.538571    0.791814
Sn108    C    0.070912    0.426194    0.774953
C109    C    0.162947    0.473015    0.828394
C110    C    0.043674    0.485458    0.768499
Te57    O    0.168085    0.585039    0.845395
Te58    O    0.048111    0.597550    0.785080
Te59    O    0.038565    0.373459    0.751528
Te60    O    0.158545    0.360979    0.811806
Mg29    Mg    0.095856    0.303586    0.772120
Mg30    Mg    0.110800    0.654944    0.824766
Sn111    C    0.961438    0.575687    0.708188
Sn112    C    0.073815    0.570899    0.725049
Sn113    C    0.080081    0.630941    0.694902
Sn114    C    0.967704    0.635728    0.678041
C115    C    0.014524    0.543697    0.731492
C116    C    0.026967    0.662967    0.671589
Te61    O    0.126549    0.538556    0.748484
Te62    O    0.139049    0.658574    0.688272
Te63    O    0.914970    0.668071    0.654606
Te64    O    0.902493    0.548079    0.714853
Mg31    Mg    0.845097    0.610778    0.675192
Mg32    Mg    0.196445    0.595874    0.727933

loop_
_geom_bond_atom_site_label_1
_geom_bond_atom_site_label_2
_geom_bond_distance
N1    N5    0.05444
N1    C1    0.05400
N2    N6    0.05444
N2    C2    0.05400
N3    N15    0.05444
N3    C3    0.05400
N4    N16    0.05444
N4    C4    0.05400
N5    C5    0.05400
N6    C6    0.05400
N7    N11    0.05444
N7    C7    0.05400
N8    N12    0.05444
N8    C8    0.05400
N9    N13    0.05444
N9    C9    0.05400
N10    N14    0.05444
N10    C10    0.05400
N11    C11    0.05400
N12    C12    0.05400
N13    C13    0.05400
N14    C14    0.05400
N15    C15    0.05400
N16    C16    0.05400
C1    H1    0.05034
C1    C32    0.04559
C2    H2    0.05034
C2    C67    0.04561
C3    H3    0.05034
C3    C50    0.04560
C4    H4    0.05034
C4    C55    0.04562
C5    H5    0.05034
C5    C79    0.04562
C6    H6    0.05034
C6    C38    0.04559
C7    H7    0.05034
C7    C109    0.04561
C8    H8    0.05034
C8    C25    0.04562
C9    H9    0.05034
C9    C116    0.04560
C10    H10    0.05034
C10    C86    0.04560
C11    H11    0.05034
C11    C61    0.04561
C12    H12    0.05034
C12    C98    0.04560
C13    H13    0.05034
C13    C44    0.04559
C14    H14    0.05034
C14    C104    0.04559
C15    H15    0.05034
C15    C73    0.04562
C16    H16    0.05034
C16    C92    0.04560
C17    C26    0.04960
C17    C31    0.04963
C17    C74    0.04960
C17    C85    0.04963
C18    C68    0.04961
C18    C91    0.04963
C18    C110    0.04961
C18    C115    0.04963
C19    C37    0.04963
C19    C43    0.04963
C19    C49    0.04963
C19    C97    0.04963
C20    C56    0.04960
C20    C62    0.04961
C20    C80    0.04960
C20    C103    0.04963
Sn21    Sn24    0.06748
Sn21    C25    0.06553
Sn21    Te4    0.06612
Sn22    Sn23    0.06748
Sn22    C25    0.06623
Sn22    Te1    0.06546
Sn23    C26    0.06557
Sn23    Te2    0.06615
Sn24    C26    0.06623
Sn24    Te3    0.06546
Te1    Mg2    0.09381
Te2    Mg2    0.09269
Te3    Mg1    0.09379
Te4    Mg1    0.09269
Sn27    Sn30    0.06748
Sn27    C31    0.06553
Sn27    Te8    0.06612
Sn28    Sn29    0.06748
Sn28    C31    0.06624
Sn28    Te5    0.06546
Sn29    C32    0.06557
Sn29    Te6    0.06615
Sn30    C32    0.06623
Sn30    Te7    0.06546
Te5    Mg4    0.09381
Te6    Mg4    0.09269
Te7    Mg3    0.09378
Te8    Mg3    0.09269
Sn33    Sn36    0.06748
Sn33    C37    0.06553
Sn33    Te12    0.06612
Sn34    Sn35    0.06748
Sn34    C37    0.06624
Sn34    Te9    0.06546
Sn35    C38    0.06557
Sn35    Te10    0.06615
Sn36    C38    0.06623
Sn36    Te11    0.06546
Te9    Mg6    0.09381
Te10    Mg6    0.09269
Te11    Mg5    0.09378
Te12    Mg5    0.09269
Sn39    Sn42    0.06748
Sn39    C43    0.06553
Sn39    Te16    0.06612
Sn40    Sn41    0.06748
Sn40    C43    0.06624
Sn40    Te13    0.06546
Sn41    C44    0.06557
Sn41    Te14    0.06615
Sn42    C44    0.06623
Sn42    Te15    0.06546
Te13    Mg8    0.09381
Te14    Mg8    0.09269
Te15    Mg7    0.09378
Te16    Mg7    0.09269
Sn45    Sn48    0.06748
Sn45    C49    0.06622
Sn45    Te20    0.06543
Sn46    Sn47    0.06748
Sn46    C49    0.06555
Sn46    Te17    0.06615
Sn47    C50    0.06626
Sn47    Te18    0.06546
Sn48    C50    0.06554
Sn48    Te19    0.06615
Te17    Mg10    0.09270
Te18    Mg10    0.09380
Te19    Mg9    0.09267
Te20    Mg9    0.09380
Sn51    Sn54    0.06748
Sn51    C55    0.06553
Sn51    Te24    0.06612
Sn52    Sn53    0.06748
Sn52    C55    0.06623
Sn52    Te21    0.06546
Sn53    C56    0.06557
Sn53    Te22    0.06615
Sn54    C56    0.06623
Sn54    Te23    0.06546
Te21    Mg12    0.09381
Te22    Mg12    0.09269
Te23    Mg11    0.09379
Te24    Mg11    0.09269
Sn57    Sn60    0.06748
Sn57    C61    0.06621
Sn57    Te28    0.06543
Sn58    Sn59    0.06748
Sn58    C61    0.06555
Sn58    Te25    0.06615
Sn59    C62    0.06626
Sn59    Te26    0.06546
Sn60    C62    0.06554
Sn60    Te27    0.06615
Te25    Mg14    0.09270
Te26    Mg14    0.09380
Te27    Mg13    0.09267
Te28    Mg13    0.09380
Sn63    Sn66    0.06748
Sn63    C67    0.06621
Sn63    Te32    0.06543
Sn64    Sn65    0.06748
Sn64    C67    0.06555
Sn64    Te29    0.06615
Sn65    C68    0.06626
Sn65    Te30    0.06546
Sn66    C68    0.06554
Sn66    Te31    0.06615
Te29    Mg16    0.09270
Te30    Mg16    0.09380
Te31    Mg15    0.09267
Te32    Mg15    0.09380
Sn69    Sn72    0.06748
Sn69    C73    0.06553
Sn69    Te36    0.06612
Sn70    Sn71    0.06748
Sn70    C73    0.06623
Sn70    Te33    0.06546
Sn71    C74    0.06557
Sn71    Te34    0.06615
Sn72    C74    0.06623
Sn72    Te35    0.06546
Te33    Mg18    0.09381
Te34    Mg18    0.09269
Te35    Mg17    0.09379
Te36    Mg17    0.09269
Sn75    Sn78    0.06748
Sn75    C79    0.06553
Sn75    Te40    0.06612
Sn76    Sn77    0.06748
Sn76    C79    0.06623
Sn76    Te37    0.06546
Sn77    C80    0.06557
Sn77    Te38    0.06615
Sn78    C80    0.06623
Sn78    Te39    0.06546
Te37    Mg20    0.09381
Te38    Mg20    0.09269
Te39    Mg19    0.09379
Te40    Mg19    0.09269
Sn81    Sn84    0.06748
Sn81    C85    0.06622
Sn81    Te44    0.06543
Sn82    Sn83    0.06748
Sn82    C85    0.06555
Sn82    Te41    0.06615
Sn83    C86    0.06626
Sn83    Te42    0.06546
Sn84    C86    0.06554
Sn84    Te43    0.06615
Te41    Mg22    0.09270
Te42    Mg22    0.09380
Te43    Mg21    0.09267
Te44    Mg21    0.09380
Sn87    Sn90    0.06748
Sn87    C91    0.06622
Sn87    Te48    0.06543
Sn88    Sn89    0.06748
Sn88    C91    0.06555
Sn88    Te45    0.06615
Sn89    C92    0.06626
Sn89    Te46    0.06546
Sn90    C92    0.06554
Sn90    Te47    0.06615
Te45    Mg24    0.09270
Te46    Mg24    0.09380
Te47    Mg23    0.09267
Te48    Mg23    0.09380
Sn93    Sn96    0.06748
Sn93    C97    0.06622
Sn93    Te52    0.06543
Sn94    Sn95    0.06748
Sn94    C97    0.06555
Sn94    Te49    0.06615
Sn95    C98    0.06626
Sn95    Te50    0.06546
Sn96    C98    0.06554
Sn96    Te51    0.06615
Te49    Mg26    0.09270
Te50    Mg26    0.09380
Te51    Mg25    0.09267
Te52    Mg25    0.09380
Sn99    Sn102    0.06748
Sn99    C103    0.06553
Sn99    Te56    0.06612
Sn100    Sn101    0.06748
Sn100    C103    0.06624
Sn100    Te53    0.06546
Sn101    C104    0.06557
Sn101    Te54    0.06615
Sn102    C104    0.06623
Sn102    Te55    0.06546
Te53    Mg28    0.09381
Te54    Mg28    0.09269
Te55    Mg27    0.09378
Te56    Mg27    0.09269
Sn105    Sn108    0.06748
Sn105    C109    0.06621
Sn105    Te60    0.06543
Sn106    Sn107    0.06748
Sn106    C109    0.06555
Sn106    Te57    0.06615
Sn107    C110    0.06626
Sn107    Te58    0.06546
Sn108    C110    0.06554
Sn108    Te59    0.06615
Te57    Mg30    0.09270
Te58    Mg30    0.09380
Te59    Mg29    0.09267
Te60    Mg29    0.09380
Sn111    Sn114    0.06748
Sn111    C115    0.06622
Sn111    Te64    0.06543
Sn112    Sn113    0.06748
Sn112    C115    0.06555
Sn112    Te61    0.06615
Sn113    C116    0.06626
Sn113    Te62    0.06546
Sn114    C116    0.06554
Sn114    Te63    0.06615
Te61    Mg32    0.09270
Te62    Mg32    0.09380
Te63    Mg31    0.09267
Te64    Mg31    0.09380
