data_new_xtal_PM
_symmetry_space_group_name_H-M    'P1'
_cell_length_a    23.454000
_cell_length_b    20.754000
_cell_length_c    23.848000
_cell_angle_alpha    90.000000
_cell_angle_beta    91.560000
_cell_angle_gamma    90.000000
_symmetry_Int_Tables_number 1

loop_
_symmetry_equiv_pos_as_xyz
'x,y,z'

loop_
_atom_site_label
_atom_site_type_symbol
_atom_site_fract_x
_atom_site_fract_y
_atom_site_fract_z
C1    C    0.952280    0.546700    0.475080
C2    C    0.047720    0.546700    0.524920
C3    C    0.452280    0.046700    0.475080
C4    C    0.547720    0.046700    0.524920
C5    C    0.023690    0.460570    0.453530
C6    C    0.976310    0.460570    0.546470
C7    C    0.523690    0.960570    0.453530
C8    C    0.476310    0.960570    0.546470
C9    C    0.070840    0.504630    0.477790
C10    C    0.929160    0.504630    0.522210
C11    C    0.570840    0.004630    0.477790
C12    C    0.429160    0.004630    0.522210
C13    C    0.975560    0.502670    0.429040
C14    C    0.024440    0.502670    0.570960
C15    C    0.475560    0.002670    0.429040
C16    C    0.524440    0.002670    0.570960
C17    C    0.539540    0.064480    0.965230
C18    C    0.460460    0.064480    0.034770
C19    C    0.039540    0.564480    0.965230
C20    C    0.960460    0.564480    0.034770
C21    C    0.463790    0.978690    0.959900
C22    C    0.536210    0.978690    0.040100
C23    C    0.963790    0.478690    0.959900
C24    C    0.036210    0.478690    0.040100
C25    C    0.420430    0.107250    0.067600
C26    C    0.579570    0.107250    0.932400
C27    C    0.920430    0.607250    0.067600
C28    C    0.079570    0.607250    0.932400
C29    C    0.503490    0.021270    0.925290
C30    C    0.496510    0.021270    0.074710
C31    C    0.003490    0.521270    0.925290
C32    C    0.996510    0.521270    0.074710
C33    C    0.575020    0.022110    0.005660
C34    C    0.424980    0.022110    0.994340
C35    C    0.075020    0.522110    0.005660
C36    C    0.924980    0.522110    0.994340
C37    C    0.073990    0.435970    0.077470
C38    C    0.926010    0.435970    0.922530
C39    C    0.573990    0.935970    0.077470
C40    C    0.426010    0.935970    0.922530
C41    C    0.048460    0.418170    0.408510
C42    C    0.951540    0.418170    0.591490
C43    C    0.548460    0.918170    0.408510
C44    C    0.451540    0.918170    0.591490
N1    N    0.054380    0.390510    0.108710
N2    N    0.945620    0.390510    0.891290
N3    N    0.554380    0.890510    0.108710
N4    N    0.445620    0.890510    0.891290
N5    N    0.090970    0.381100    0.421220
N6    N    0.909030    0.381100    0.578780
N7    N    0.590970    0.881100    0.421220
N8    N    0.409030    0.881100    0.578780
C45    C    0.226570    0.232180    0.276310
C46    C    0.773430    0.232180    0.723690
C47    C    0.726570    0.732180    0.276310
C48    C    0.273430    0.732180    0.723690
C49    C    0.219490    0.229770    0.219400
C50    C    0.780510    0.229770    0.780600
C51    C    0.719490    0.729770    0.219400
C52    C    0.280510    0.729770    0.780600
N9    N    0.380540    0.083360    0.097780
N10    N    0.619460    0.083360    0.902220
N11    N    0.880540    0.583360    0.097780
N12    N    0.119460    0.583360    0.902220
C53    C    0.403620    0.086500    0.450130
C54    C    0.596380    0.086500    0.549870
C55    C    0.903620    0.586500    0.450130
C56    C    0.096380    0.586500    0.549870
N13    N    0.409270    0.121520    0.405740
N14    N    0.590730    0.121520    0.594260
N15    N    0.909270    0.621520    0.405740
N16    N    0.090730    0.621520    0.594260
H1    H    0.088000    0.535150    0.444240
H2    H    0.912000    0.535150    0.555760
H3    H    0.588000    0.035150    0.444240
H4    H    0.412000    0.035150    0.555760
H5    H    0.106970    0.475460    0.494280
H6    H    0.893030    0.475460    0.505720
H7    H    0.606970    0.975460    0.494280
H8    H    0.393030    0.975460    0.505720
H9    H    0.991600    0.531810    0.394050
H10    H    0.008400    0.531810    0.605950
H11    H    0.491600    0.031810    0.394050
H12    H    0.508400    0.031810    0.605950
H13    H    0.940950    0.472240    0.411170
H14    H    0.059050    0.472240    0.588830
H15    H    0.440950    0.972240    0.411170
H16    H    0.559050    0.972240    0.588830
H17    H    0.426520    0.159570    0.063090
H18    H    0.573480    0.159570    0.936910
H19    H    0.926520    0.659570    0.063090
H20    H    0.073480    0.659570    0.936910
H21    H    0.531530    0.990840    0.899900
H22    H    0.468470    0.990840    0.100100
H23    H    0.031530    0.490840    0.899900
H24    H    0.968470    0.490840    0.100100
H25    H    0.478220    0.051220    0.895500
H26    H    0.521780    0.051220    0.104500
H27    H    0.978220    0.551220    0.895500
H28    H    0.021780    0.551220    0.104500
H29    H    0.601630    0.052660    0.033860
H30    H    0.398370    0.052660    0.966140
H31    H    0.101630    0.552660    0.033860
H32    H    0.898370    0.552660    0.966140
H33    H    0.604890    0.992050    0.981950
H34    H    0.395110    0.992050    0.018050
H35    H    0.104890    0.492050    0.981950
H36    H    0.895110    0.492050    0.018050
H37    H    0.120200    0.444620    0.074620
H38    H    0.879800    0.444620    0.925380
H39    H    0.620200    0.944620    0.074620
H40    H    0.379800    0.944620    0.925380
H41    H    0.030200    0.421720    0.365580
H42    H    0.969800    0.421720    0.634420
H43    H    0.530200    0.921720    0.365580
H44    H    0.469800    0.921720    0.634420
H45    H    0.362460    0.080300    0.470450
H46    H    0.637540    0.080300    0.529550
H47    H    0.862460    0.580300    0.470450
H48    H    0.137540    0.580300    0.529550
H49    H    0.533560    0.886110    0.517800
H50    H    0.466440    0.886110    0.482200
H51    H    0.033560    0.386110    0.517800
H52    H    0.966440    0.386110    0.482200
H53    H    0.972000    0.404510    0.024110
H54    H    0.028000    0.404510    0.975890
H55    H    0.472000    0.904510    0.024110
H56    H    0.528000    0.904510    0.975890
H57    H    0.025630    0.638700    0.027940
H58    H    0.974370    0.638700    0.972060
H59    H    0.525630    0.138700    0.027940
H60    H    0.474370    0.138700    0.972060
H61    H    0.982690    0.621600    0.532550
H62    H    0.017310    0.621600    0.467450
H63    H    0.482690    0.121600    0.532550
H64    H    0.517310    0.121600    0.467450
C57    C    0.000000    0.589840    0.500000
C58    C    0.500000    0.089840    0.500000
C59    C    0.000000    0.418030    0.500000
C60    C    0.500000    0.918030    0.500000
C61    C    0.500000    0.936400    0.000000
C62    C    0.000000    0.436400    0.000000
C63    C    0.000000    0.606850    0.000000
C64    C    0.500000    0.106850    0.000000
Sn65    C    0.876351    0.684955    0.326541
Sn66    C    0.807002    0.635298    0.386934
Sn67    C    0.762014    0.661866    0.353338
Sn68    C    0.831363    0.711524    0.292946
C69    C    0.863864    0.647043    0.373300
C70    C    0.774496    0.699814    0.306551
Te1    O    0.794983    0.597360    0.433726
Te2    O    0.705081    0.650504    0.366595
Te3    O    0.843382    0.749462    0.246153
Te4    O    0.933261    0.696342    0.313312
Mg1    Mg    0.927598    0.751020    0.245544
Mg2    Mg    0.710744    0.595826    0.434363
Sn71    C    0.181104    0.342975    0.392736
Sn72    C    0.095682    0.308000    0.341339
Sn73    C    0.129702    0.271119    0.304951
Sn74    C    0.215124    0.306094    0.356348
C75    C    0.121631    0.343684    0.384976
C76    C    0.189217    0.270409    0.312700
Te5    O    0.036241    0.309027    0.333946
Te6    O    0.104250    0.235358    0.261207
Te7    O    0.274566    0.305066    0.363741
Te8    O    0.206545    0.378752    0.436442
Mg3    Mg    0.288920    0.361724    0.429198
Mg4    Mg    0.021875    0.252386    0.268451
Sn77    C    0.681104    0.842975    0.392736
Sn78    C    0.595682    0.808000    0.341339
Sn79    C    0.629702    0.771119    0.304951
Sn80    C    0.715124    0.806094    0.356348
C81    C    0.621631    0.843684    0.384976
C82    C    0.689217    0.770409    0.312700
Te9    O    0.536241    0.809027    0.333946
Te10    O    0.604250    0.735358    0.261207
Te11    O    0.774566    0.805066    0.363741
Te12    O    0.706545    0.878752    0.436442
Mg5    Mg    0.788920    0.861724    0.429198
Mg6    Mg    0.521875    0.752386    0.268451
Sn83    C    0.318896    0.842975    0.607264
Sn84    C    0.404318    0.808000    0.658661
Sn85    C    0.370298    0.771119    0.695049
Sn86    C    0.284876    0.806094    0.643652
C87    C    0.378369    0.843684    0.615024
C88    C    0.310783    0.770409    0.687300
Te13    O    0.463759    0.809027    0.666054
Te14    O    0.395750    0.735358    0.738793
Te15    O    0.225434    0.805066    0.636259
Te16    O    0.293455    0.878752    0.563558
Mg7    Mg    0.211080    0.861724    0.570802
Mg8    Mg    0.478125    0.752386    0.731549
Sn89    C    0.376351    0.184955    0.326541
Sn90    C    0.307002    0.135298    0.386934
Sn91    C    0.262014    0.161866    0.353338
Sn92    C    0.331363    0.211524    0.292946
C93    C    0.363864    0.147043    0.373300
C94    C    0.274496    0.199814    0.306551
Te17    O    0.294983    0.097360    0.433726
Te18    O    0.205081    0.150504    0.366595
Te19    O    0.343382    0.249462    0.246153
Te20    O    0.433261    0.196342    0.313312
Mg9    Mg    0.427598    0.251020    0.245544
Mg10    Mg    0.210744    0.095826    0.434363
Sn95    C    0.134287    0.377755    0.174498
Sn96    C    0.095012    0.284571    0.125243
Sn97    C    0.136751    0.244688    0.151884
Sn98    C    0.176026    0.337872    0.201140
C99    C    0.094069    0.350833    0.136749
C100    C    0.176995    0.271612    0.189667
Te21    O    0.054653    0.258154    0.087466
Te22    O    0.138055    0.178452    0.140748
Te23    O    0.216385    0.364289    0.238916
Te24    O    0.132961    0.443956    0.185652
Mg11    Mg    0.196902    0.456893    0.240174
Mg12    Mg    0.074113    0.165515    0.086227
Sn101    C    0.323966    0.837868    0.798860
Sn102    C    0.363237    0.744681    0.848113
Sn103    C    0.404982    0.784561    0.874749
Sn104    C    0.365710    0.877748    0.825495
C105    C    0.323024    0.771621    0.810342
C106    C    0.405941    0.850852    0.863261
Te25    O    0.361928    0.678453    0.859298
Te26    O    0.445377    0.758165    0.912495
Te27    O    0.367019    0.943976    0.814311
Te28    O    0.283608    0.864243    0.761105
Mg13    Mg    0.303072    0.956869    0.759810
Mg14    Mg    0.425912    0.665539    0.913790
Sn107    C    0.668643    0.211524    0.707062
Sn108    C    0.737995    0.161868    0.646671
Sn109    C    0.693008    0.135307    0.613071
Sn110    C    0.623655    0.184962    0.673461
C111    C    0.725491    0.199806    0.693432
C112    C    0.636118    0.147032    0.626693
Te29    O    0.794923    0.150448    0.633418
Te30    O    0.705000    0.097407    0.566252
Te31    O    0.566727    0.196382    0.686715
Te32    O    0.656659    0.249439    0.753842
Mg15    Mg    0.572430    0.251036    0.754477
Mg16    Mg    0.789229    0.095810    0.565617
Sn113    C    0.123649    0.684955    0.673459
Sn114    C    0.192998    0.635298    0.613066
Sn115    C    0.237986    0.661866    0.646662
Sn116    C    0.168637    0.711524    0.707054
C117    C    0.136136    0.647043    0.626700
C118    C    0.225504    0.699814    0.693449
Te33    O    0.205017    0.597360    0.566274
Te34    O    0.294919    0.650504    0.633405
Te35    O    0.156618    0.749462    0.753847
Te36    O    0.066739    0.696342    0.686688
Mg17    Mg    0.072402    0.751020    0.754456
Mg18    Mg    0.289256    0.595826    0.565637
Sn119    C    0.811598    0.590605    0.170505
Sn120    C    0.823853    0.681574    0.107759
Sn121    C    0.783038    0.717135    0.137846
Sn122    C    0.770783    0.626167    0.200592
C123    C    0.837854    0.618553    0.124312
C124    C    0.756764    0.689186    0.184077
Te37    O    0.850320    0.709048    0.061556
Te38    O    0.768774    0.780121    0.121721
Te39    O    0.744316    0.598692    0.246794
Te40    O    0.825882    0.527660    0.186640
Mg19    Mg    0.778170    0.511662    0.252245
Mg20    Mg    0.816487    0.796119    0.056117
Sn125    C    0.229226    0.626169    0.799406
Sn126    C    0.216974    0.717140    0.862150
Sn127    C    0.176153    0.681584    0.892233
Sn128    C    0.188404    0.590613    0.829489
C129    C    0.243218    0.689179    0.815934
C130    C    0.162135    0.618535    0.875698
Te41    O    0.231252    0.780110    0.878321
Te42    O    0.149641    0.709048    0.938410
Te43    O    0.174126    0.527643    0.813317
Te44    O    0.255703    0.598733    0.753228
Mg21    Mg    0.221855    0.511683    0.747737
Mg22    Mg    0.183488    0.796098    0.943902
Sn131    C    0.270774    0.126169    0.200594
Sn132    C    0.283026    0.217140    0.137850
Sn133    C    0.323847    0.181584    0.107767
Sn134    C    0.311596    0.090613    0.170511
C135    C    0.256782    0.189179    0.184066
C136    C    0.337865    0.118535    0.124302
Te45    O    0.268748    0.280110    0.121679
Te46    O    0.350359    0.209048    0.061590
Te47    O    0.325874    0.027643    0.186683
Te48    O    0.244297    0.098733    0.246772
Mg23    Mg    0.278145    0.011683    0.252263
Mg24    Mg    0.316512    0.296098    0.056098
Sn137    C    0.676034    0.837868    0.201140
Sn138    C    0.636763    0.744681    0.151887
Sn139    C    0.595018    0.784561    0.125251
Sn140    C    0.634290    0.877748    0.174505
C141    C    0.676976    0.771621    0.189658
C142    C    0.594059    0.850852    0.136739
Te49    O    0.638072    0.678453    0.140702
Te50    O    0.554623    0.758165    0.087505
Te51    O    0.632981    0.943976    0.185689
Te52    O    0.716392    0.864243    0.238895
Mg25    Mg    0.696928    0.956869    0.240190
Mg26    Mg    0.574088    0.665539    0.086210
Sn143    C    0.729226    0.126169    0.799406
Sn144    C    0.716974    0.217140    0.862150
Sn145    C    0.676153    0.181584    0.892233
Sn146    C    0.688404    0.090613    0.829489
C147    C    0.743218    0.189179    0.815934
C148    C    0.662135    0.118535    0.875698
Te53    O    0.731252    0.280110    0.878321
Te54    O    0.649641    0.209048    0.938410
Te55    O    0.674126    0.027643    0.813317
Te56    O    0.755703    0.098733    0.753228
Mg27    Mg    0.721855    0.011683    0.747737
Mg28    Mg    0.683488    0.296098    0.943902
Sn149    C    0.904310    0.308001    0.658658
Sn150    C    0.818890    0.342979    0.607258
Sn151    C    0.784869    0.306098    0.643646
Sn152    C    0.870288    0.271121    0.695046
C153    C    0.878381    0.343679    0.615031
C154    C    0.810802    0.270401    0.687311
Te57    O    0.793408    0.378780    0.563551
Te58    O    0.725425    0.305099    0.636306
Te59    O    0.895771    0.235320    0.738753
Te60    O    0.963726    0.309033    0.666012
Mg29    Mg    0.978122    0.252381    0.731484
Mg30    Mg    0.711029    0.361751    0.570834
Sn155    C    0.865713    0.377755    0.825502
Sn156    C    0.904988    0.284571    0.874757
Sn157    C    0.863249    0.244688    0.848116
Sn158    C    0.823974    0.337872    0.798860
C159    C    0.905931    0.350833    0.863251
C160    C    0.823005    0.271612    0.810333
Te61    O    0.945347    0.258154    0.912534
Te62    O    0.861945    0.178452    0.859252
Te63    O    0.783615    0.364289    0.761084
Te64    O    0.867039    0.443956    0.814348
Mg31    Mg    0.803098    0.456893    0.759826
Mg32    Mg    0.925887    0.165515    0.913773

loop_
_geom_bond_atom_site_label_1
_geom_bond_atom_site_label_2
_geom_bond_distance
C1    C10    0.06727
C1    C13    0.06783
C1    C55    0.06763
C1    C57    0.06899
C2    C9    0.06727
C2    C14    0.06783
C2    C56    0.06763
C2    C57    0.06899
C3    C12    0.06727
C3    C15    0.06783
C3    C53    0.06763
C3    C58    0.06899
C4    C11    0.06727
C4    C16    0.06783
C4    C54    0.06763
C4    C58    0.06899
C5    C9    0.06894
C5    C13    0.06847
C5    C41    0.06662
C5    C59    0.06731
C6    C10    0.06894
C6    C14    0.06847
C6    C42    0.06662
C6    C59    0.06731
C7    C11    0.06894
C7    C15    0.06847
C7    C43    0.06662
C7    C60    0.06731
C8    C12    0.06894
C8    C16    0.06847
C8    C44    0.06662
C8    C60    0.06731
C9    H1    0.04849
C9    H5    0.04928
C10    H2    0.04849
C10    H6    0.04928
C11    H3    0.04849
C11    H7    0.04928
C12    H4    0.04849
C12    H8    0.04928
C13    H9    0.04828
C13    H13    0.04943
C14    H10    0.04828
C14    H14    0.04943
C15    H11    0.04828
C15    H15    0.04943
C16    H12    0.04828
C16    H16    0.04943
C17    C26    0.06715
C17    C29    0.06901
C17    C33    0.06847
C17    C64    0.06758
C18    C25    0.06715
C18    C30    0.06901
C18    C34    0.06847
C18    C64    0.06758
C19    C28    0.06715
C19    C31    0.06901
C19    C35    0.06847
C19    C63    0.06758
C20    C27    0.06715
C20    C32    0.06901
C20    C36    0.06847
C20    C63    0.06758
C21    C29    0.06773
C21    C34    0.06766
C21    C40    0.06818
C21    C61    0.06861
C22    C30    0.06773
C22    C33    0.06766
C22    C39    0.06818
C22    C61    0.06861
C23    C31    0.06773
C23    C36    0.06766
C23    C38    0.06818
C23    C62    0.06861
C24    C32    0.06773
C24    C35    0.06766
C24    C37    0.06818
C24    C62    0.06861
C25    N9    0.05543
C25    H17    0.05287
C26    N10    0.05543
C26    H18    0.05287
C27    N11    0.05543
C27    H19    0.05287
C28    N12    0.05543
C28    H20    0.05287
C29    H21    0.04855
C29    H25    0.04922
C30    H22    0.04855
C30    H26    0.04922
C31    H23    0.04855
C31    H27    0.04922
C32    H24    0.04855
C32    H28    0.04922
C33    H29    0.04936
C33    H33    0.04856
C34    H30    0.04936
C34    H34    0.04856
C35    H31    0.04936
C35    H35    0.04856
C36    H32    0.04936
C36    H36    0.04856
C37    N1    0.05854
C37    H37    0.04710
C38    N2    0.05854
C38    H38    0.04710
C39    N3    0.05854
C39    H39    0.04710
C40    N4    0.05854
C40    H40    0.04710
C41    N5    0.05782
C41    H41    0.04679
C42    N6    0.05782
C42    H42    0.04679
C43    N7    0.05782
C43    H43    0.04679
C44    N8    0.05782
C44    H44    0.04679
N1    C99    0.06273
N2    C159    0.06273
N3    C142    0.06271
N4    C106    0.06271
N5    C75    0.06045
N6    C153    0.06045
N7    C81    0.06045
N8    C87    0.06045
C45    C49    0.05740
C45    C76    0.06466
C45    C94    0.06526
C46    C50    0.05740
C46    C111    0.06528
C46    C154    0.06466
C47    C51    0.05740
C47    C70    0.06526
C47    C82    0.06466
C48    C52    0.05740
C48    C88    0.06466
C48    C118    0.06526
C49    C100    0.06664
C49    C135    0.06547
C50    C147    0.06547
C50    C160    0.06664
C51    C124    0.06545
C51    C141    0.06666
C52    C105    0.06666
C52    C129    0.06547
N9    C136    0.06133
N10    C148    0.06133
N11    C123    0.06136
N12    C130    0.06133
C53    N13    0.05682
C53    H45    0.04632
C54    N14    0.05682
C54    H46    0.04632
C55    N15    0.05682
C55    H47    0.04632
C56    N16    0.05682
C56    H48    0.04632
N13    C93    0.06136
N14    C112    0.06134
N15    C69    0.06136
N16    C117    0.06136
H49    C60    0.04962
H50    C60    0.04962
H51    C59    0.04962
H52    C59    0.04962
H53    C62    0.04881
H54    C62    0.04881
H55    C61    0.04881
H56    C61    0.04881
H57    C63    0.04952
H58    C63    0.04952
H59    C64    0.04952
H60    C64    0.04952
H61    C57    0.04866
H62    C57    0.04866
H63    C58    0.04866
H64    C58    0.04866
Sn65    Sn68    0.06212
Sn65    C69    0.06148
Sn65    Te4    0.05953
Sn66    Sn67    0.06212
Sn66    C69    0.05964
Sn66    Te1    0.06143
Sn67    C70    0.06152
Sn67    Te2    0.05955
Sn68    C70    0.05963
Sn68    Te3    0.06143
Te1    Mg2    0.08426
Te2    Mg2    0.08726
Te3    Mg1    0.08423
Te4    Mg1    0.08726
Sn71    Sn74    0.06198
Sn71    C75    0.05998
Sn71    Te8    0.06195
Sn72    Sn73    0.06198
Sn72    C75    0.06205
Sn72    Te5    0.05991
Sn73    C76    0.06002
Sn73    Te6    0.06197
Sn74    C76    0.06205
Sn74    Te7    0.05991
Te5    Mg4    0.08777
Te6    Mg4    0.08443
Te7    Mg3    0.08775
Te8    Mg3    0.08443
Sn77    Sn80    0.06198
Sn77    C81    0.05998
Sn77    Te12    0.06195
Sn78    Sn79    0.06198
Sn78    C81    0.06205
Sn78    Te9    0.05991
Sn79    C82    0.06002
Sn79    Te10    0.06197
Sn80    C82    0.06205
Sn80    Te11    0.05991
Te9    Mg6    0.08777
Te10    Mg6    0.08443
Te11    Mg5    0.08775
Te12    Mg5    0.08443
Sn83    Sn86    0.06198
Sn83    C87    0.05998
Sn83    Te16    0.06195
Sn84    Sn85    0.06198
Sn84    C87    0.06205
Sn84    Te13    0.05991
Sn85    C88    0.06002
Sn85    Te14    0.06197
Sn86    C88    0.06205
Sn86    Te15    0.05991
Te13    Mg8    0.08777
Te14    Mg8    0.08443
Te15    Mg7    0.08775
Te16    Mg7    0.08443
Sn89    Sn92    0.06212
Sn89    C93    0.06148
Sn89    Te20    0.05953
Sn90    Sn91    0.06212
Sn90    C93    0.05964
Sn90    Te17    0.06143
Sn91    C94    0.06152
Sn91    Te18    0.05955
Sn92    C94    0.05963
Sn92    Te19    0.06143
Te17    Mg10    0.08426
Te18    Mg10    0.08726
Te19    Mg9    0.08423
Te20    Mg9    0.08726
Sn95    Sn98    0.06358
Sn95    C99    0.06138
Sn95    Te24    0.06715
Sn96    Sn97    0.06358
Sn96    C99    0.06726
Sn96    Te21    0.06127
Sn97    C100    0.06142
Sn97    Te22    0.06718
Sn98    C100    0.06725
Sn98    Te23    0.06127
Te21    Mg12    0.09467
Te22    Mg12    0.08502
Te23    Mg11    0.09464
Te24    Mg11    0.08502
Sn101    Sn104    0.06358
Sn101    C105    0.06724
Sn101    Te28    0.06124
Sn102    Sn103    0.06358
Sn102    C105    0.06140
Sn102    Te25    0.06718
Sn103    C106    0.06729
Sn103    Te26    0.06126
Sn104    C106    0.06139
Sn104    Te27    0.06718
Te25    Mg14    0.08503
Te26    Mg14    0.09466
Te27    Mg13    0.08500
Te28    Mg13    0.09466
Sn107    Sn110    0.06212
Sn107    C111    0.05962
Sn107    Te32    0.06140
Sn108    Sn109    0.06212
Sn108    C111    0.06150
Sn108    Te29    0.05956
Sn109    C112    0.05966
Sn109    Te30    0.06142
Sn110    C112    0.06149
Sn110    Te31    0.05956
Te29    Mg16    0.08726
Te30    Mg16    0.08425
Te31    Mg15    0.08724
Te32    Mg15    0.08425
Sn113    Sn116    0.06212
Sn113    C117    0.06148
Sn113    Te36    0.05953
Sn114    Sn115    0.06212
Sn114    C117    0.05964
Sn114    Te33    0.06143
Sn115    C118    0.06152
Sn115    Te34    0.05955
Sn116    C118    0.05963
Sn116    Te35    0.06143
Te33    Mg18    0.08426
Te34    Mg18    0.08726
Te35    Mg17    0.08423
Te36    Mg17    0.08726
Sn119    Sn122    0.06193
Sn119    C123    0.06004
Sn119    Te40    0.06653
Sn120    Sn121    0.06193
Sn120    C123    0.06665
Sn120    Te37    0.05992
Sn121    C124    0.06007
Sn121    Te38    0.06656
Sn122    C124    0.06664
Sn122    Te39    0.05992
Te37    Mg20    0.09357
Te38    Mg20    0.08268
Te39    Mg19    0.09354
Te40    Mg19    0.08268
Sn125    Sn128    0.06193
Sn125    C129    0.06663
Sn125    Te44    0.05988
Sn126    Sn127    0.06193
Sn126    C129    0.06005
Sn126    Te41    0.06656
Sn127    C130    0.06667
Sn127    Te42    0.05991
Sn128    C130    0.06004
Sn128    Te43    0.06656
Te41    Mg22    0.08269
Te42    Mg22    0.09356
Te43    Mg21    0.08267
Te44    Mg21    0.09356
Sn131    Sn134    0.06193
Sn131    C135    0.06663
Sn131    Te48    0.05988
Sn132    Sn133    0.06193
Sn132    C135    0.06005
Sn132    Te45    0.06656
Sn133    C136    0.06667
Sn133    Te46    0.05991
Sn134    C136    0.06004
Sn134    Te47    0.06656
Te45    Mg24    0.08269
Te46    Mg24    0.09356
Te47    Mg23    0.08267
Te48    Mg23    0.09356
Sn137    Sn140    0.06358
Sn137    C141    0.06724
Sn137    Te52    0.06124
Sn138    Sn139    0.06358
Sn138    C141    0.06140
Sn138    Te49    0.06718
Sn139    C142    0.06729
Sn139    Te50    0.06126
Sn140    C142    0.06139
Sn140    Te51    0.06718
Te49    Mg26    0.08503
Te50    Mg26    0.09466
Te51    Mg25    0.08500
Te52    Mg25    0.09466
Sn143    Sn146    0.06193
Sn143    C147    0.06663
Sn143    Te56    0.05988
Sn144    Sn145    0.06193
Sn144    C147    0.06005
Sn144    Te53    0.06656
Sn145    C148    0.06667
Sn145    Te54    0.05991
Sn146    C148    0.06004
Sn146    Te55    0.06656
Te53    Mg28    0.08269
Te54    Mg28    0.09356
Te55    Mg27    0.08267
Te56    Mg27    0.09356
Sn149    Sn152    0.06198
Sn149    C153    0.06204
Sn149    Te60    0.05988
Sn150    Sn151    0.06198
Sn150    C153    0.06000
Sn150    Te57    0.06198
Sn151    C154    0.06208
Sn151    Te58    0.05990
Sn152    C154    0.05999
Sn152    Te59    0.06198
Te57    Mg30    0.08444
Te58    Mg30    0.08777
Te59    Mg29    0.08441
Te60    Mg29    0.08777
Sn155    Sn158    0.06358
Sn155    C159    0.06138
Sn155    Te64    0.06715
Sn156    Sn157    0.06358
Sn156    C159    0.06726
Sn156    Te61    0.06127
Sn157    C160    0.06142
Sn157    Te62    0.06718
Sn158    C160    0.06725
Sn158    Te63    0.06127
Te61    Mg32    0.09467
Te62    Mg32    0.08502
Te63    Mg31    0.09464
Te64    Mg31    0.08502
